data_crystal_4_(01)_290k
_audit_creation_date              2016-06-06
_audit_creation_method
;
Olex2 1.2
(compiled Feb 16 2016 13:09:46 for OlexSys, GUI svn.r5155)
;
_publ_contact_author_address      ?
_publ_contact_author_email        ?
_publ_contact_author_name         ''
_publ_contact_author_phone        ?
_publ_section_references
;
Dolomanov, O.V., Bourhis, L.J., Gildea, R.J, Howard, J.A.K. & Puschmann, H.
 (2009), J. Appl. Cryst. 42, 339-341.

Sheldrick, G.M. (2015). Acta Cryst. A71, 3-8.

Sheldrick, G.M. (2015). Acta Cryst. C71, 3-8.
;
_chemical_name_common             ?
_chemical_name_systematic         ?
_chemical_formula_moiety          'C12 Fe1, 3(C H4 N2 S)'
_chemical_formula_sum             'C13 H22 Fe N6 S3'
_chemical_formula_weight          414.39
_chemical_melting_point           ?
loop_
  _atom_type_symbol
  _atom_type_description
  _atom_type_scat_dispersion_real
  _atom_type_scat_dispersion_imag
  _atom_type_scat_source
 'C' 'C' 0.0030 0.0020 'International Tables Vol C Tables 4.2.6.8 and 6.1.1.4'
 'H' 'H' 0.0000 0.0000 'International Tables Vol C Tables 4.2.6.8 and 6.1.1.4'
 'Fe' 'Fe' 0.3550 0.8220 'International Tables Vol C Tables 4.2.6.8 and 6.1.1.4'
 'N' 'N' 0.0060 0.0030 'International Tables Vol C Tables 4.2.6.8 and 6.1.1.4'
 'S' 'S' 0.1210 0.1200 'International Tables Vol C Tables 4.2.6.8 and 6.1.1.4'

_shelx_space_group_comment
;
The symmetry employed for this shelxl refinement is uniquely defined
by the following loop, which should always be used as a source of
symmetry information in preference to the above space-group names.
They are only intended as comments.
;
_space_group_crystal_system       'trigonal'
_space_group_IT_number            167
_space_group_name_H-M_alt         'R -3 c'
_space_group_name_Hall            '-R 3 2"c'
loop_
  _space_group_symop_operation_xyz
 'x, y, z'
 '-y, x-y, z'
 '-x+y, -x, z'
 'y, x, -z+1/2'
 'x-y, -y, -z+1/2'
 '-x, -x+y, -z+1/2'
 'x+2/3, y+1/3, z+1/3'
 '-y+2/3, x-y+1/3, z+1/3'
 '-x+y+2/3, -x+1/3, z+1/3'
 'y+2/3, x+1/3, -z+5/6'
 'x-y+2/3, -y+1/3, -z+5/6'
 '-x+2/3, -x+y+1/3, -z+5/6'
 'x+1/3, y+2/3, z+2/3'
 '-y+1/3, x-y+2/3, z+2/3'
 '-x+y+1/3, -x+2/3, z+2/3'
 'y+1/3, x+2/3, -z+7/6'
 'x-y+1/3, -y+2/3, -z+7/6'
 '-x+1/3, -x+y+2/3, -z+7/6'
 '-x, -y, -z'
 'y, -x+y, -z'
 'x-y, x, -z'
 '-y, -x, z-1/2'
 '-x+y, y, z-1/2'
 'x, x-y, z-1/2'
 '-x+2/3, -y+1/3, -z+1/3'
 'y+2/3, -x+y+1/3, -z+1/3'
 'x-y+2/3, x+1/3, -z+1/3'
 '-y+2/3, -x+1/3, z-1/6'
 '-x+y+2/3, y+1/3, z-1/6'
 'x+2/3, x-y+1/3, z-1/6'
 '-x+1/3, -y+2/3, -z+2/3'
 'y+1/3, -x+y+2/3, -z+2/3'
 'x-y+1/3, x+2/3, -z+2/3'
 '-y+1/3, -x+2/3, z+1/6'
 '-x+y+1/3, y+2/3, z+1/6'
 'x+1/3, x-y+2/3, z+1/6'

_cell_length_a                    16.3249(5)
_cell_length_b                    16.3249(5)
_cell_length_c                    12.4163(4)
_cell_angle_alpha                 90
_cell_angle_beta                  90
_cell_angle_gamma                 120
_cell_volume                      2865.67(19)
_cell_formula_units_Z             6
_cell_measurement_reflns_used     ?
_cell_measurement_temperature     293(2)
_cell_measurement_theta_max       ?
_cell_measurement_theta_min       ?
_shelx_estimated_absorpt_T_max    ?
_shelx_estimated_absorpt_T_min    ?
_exptl_absorpt_coefficient_mu     1.073
_exptl_absorpt_correction_T_max   ?
_exptl_absorpt_correction_T_min   ?
_exptl_absorpt_correction_type    ?
_exptl_absorpt_process_details    ?
_exptl_absorpt_special_details    ?
_exptl_crystal_colour             ?
_exptl_crystal_density_diffrn     1.441
_exptl_crystal_density_meas       ?
_exptl_crystal_density_method     ?
_exptl_crystal_description        ?
_exptl_crystal_F_000              1296
_exptl_crystal_size_max           ?
_exptl_crystal_size_mid           ?
_exptl_crystal_size_min           ?
_exptl_transmission_factor_max    ?
_exptl_transmission_factor_min    ?
_diffrn_reflns_av_R_equivalents   0.0607
_diffrn_reflns_av_unetI/netI      0.0302
_diffrn_reflns_Laue_measured_fraction_full 0.998
_diffrn_reflns_Laue_measured_fraction_max 0.920
_diffrn_reflns_limit_h_max        24
_diffrn_reflns_limit_h_min        -24
_diffrn_reflns_limit_k_max        24
_diffrn_reflns_limit_k_min        -24
_diffrn_reflns_limit_l_max        16
_diffrn_reflns_limit_l_min        -16
_diffrn_reflns_number             7492
_diffrn_reflns_point_group_measured_fraction_full 0.998
_diffrn_reflns_point_group_measured_fraction_max 0.920
_diffrn_reflns_theta_full         24.760
_diffrn_reflns_theta_max          32.207
_diffrn_reflns_theta_min          2.451
_diffrn_ambient_temperature       293(2)
_diffrn_detector_area_resol_mean  ?
_diffrn_measured_fraction_theta_full 0.998
_diffrn_measured_fraction_theta_max 0.920
_diffrn_measurement_device_type   ?
_diffrn_measurement_method        ?
_diffrn_radiation_type            ?
_diffrn_radiation_wavelength      0.69804
_diffrn_source                    ?
_reflns_Friedel_coverage          0.000
_reflns_Friedel_fraction_full     .
_reflns_Friedel_fraction_max      .
_reflns_number_gt                 1033
_reflns_number_total              1103
_reflns_special_details
;
 Reflections were merged by SHELXL according to the crystal
 class for the calculation of statistics and refinement.
 
 _reflns_Friedel_fraction is defined as the number of unique
 Friedel pairs measured divided by the number that would be
 possible theoretically, ignoring centric projections and
 systematic absences.
;
_reflns_threshold_expression      'I > 2\s(I)'
_computing_cell_refinement        ?
_computing_data_collection        ?
_computing_data_reduction         ?
_computing_molecular_graphics     'Olex2 (Dolomanov et al., 2009)'
_computing_publication_material   'Olex2 (Dolomanov et al., 2009)'
_computing_structure_refinement   'ShelXL (Sheldrick, 2015)'
_computing_structure_solution     'ShelXT (Sheldrick, 2015)'
_refine_diff_density_max          1.053
_refine_diff_density_min          -0.437
_refine_diff_density_rms          0.114
_refine_ls_extinction_coef        .
_refine_ls_extinction_method      none
_refine_ls_goodness_of_fit_ref    1.189
_refine_ls_hydrogen_treatment     constr
_refine_ls_matrix_type            full
_refine_ls_number_parameters      40
_refine_ls_number_reflns          1103
_refine_ls_number_restraints      0
_refine_ls_R_factor_all           0.0868
_refine_ls_R_factor_gt            0.0849
_refine_ls_restrained_S_all       1.189
_refine_ls_shift/su_max           0.000
_refine_ls_shift/su_mean          0.000
_refine_ls_structure_factor_coef  Fsqd
_refine_ls_weighting_details
'w=1/[\s^2^(Fo^2^)+(0.1180P)^2^+4.4160P] where P=(Fo^2^+2Fc^2^)/3'
_refine_ls_weighting_scheme       calc
_refine_ls_wR_factor_gt           0.2399
_refine_ls_wR_factor_ref          0.2421
_refine_special_details           ?
_olex2_refinement_description
;
1. Fixed Uiso
 At 1.2 times of:
  All N(H,H) groups
2.a X=CH2 refined with riding coordinates:
 N003(H00a,H00b)
;
_atom_sites_solution_hydrogens    geom
_atom_sites_solution_primary      direct
_atom_sites_solution_secondary    ?
loop_
  _atom_site_label
  _atom_site_type_symbol
  _atom_site_fract_x
  _atom_site_fract_y
  _atom_site_fract_z
  _atom_site_U_iso_or_equiv
  _atom_site_adp_type
  _atom_site_occupancy
  _atom_site_site_symmetry_order
  _atom_site_calc_flag
  _atom_site_refinement_flags_posn
  _atom_site_refinement_flags_adp
  _atom_site_refinement_flags_occupancy
  _atom_site_disorder_assembly
  _atom_site_disorder_group
 Fe01 Fe 0.3333 0.6667 0.4167 0.0757(5) Uani 1 6 d S T P . .
 S002 S 0.63898(6) 0.6667 0.4167 0.0536(4) Uani 1 2 d S T P . .
 N003 N 0.7924(2) 0.6820(2) 0.5067(2) 0.0645(7) Uani 1 1 d . . . . .
 H00A H 0.8451 0.6819 0.5066 0.077 Uiso 1 1 calc R . . . .
 H00B H 0.7711 0.6920 0.5656 0.077 Uiso 1 1 calc R . . . .
 C004 C 0.7444(3) 0.6667 0.4167 0.0502(8) Uani 1 2 d S T P . .
 C1 C 0.4120(17) 0.6437(16) 0.320(2) 0.290(11) Uani 1 1 d . . . . .
 C2 C 0.3156(19) 0.5596(15) 0.328(2) 0.315(11) Uani 1 1 d . . . . .

loop_
  _atom_site_aniso_label
  _atom_site_aniso_U_11
  _atom_site_aniso_U_22
  _atom_site_aniso_U_33
  _atom_site_aniso_U_23
  _atom_site_aniso_U_13
  _atom_site_aniso_U_12
 Fe01 0.0486(5) 0.0486(5) 0.1300(13) 0.000 0.000 0.0243(2)
 S002 0.0549(5) 0.0648(6) 0.0443(6) -0.0037(3) -0.00186(17) 0.0324(3)
 N003 0.0611(15) 0.0821(19) 0.0557(15) -0.0023(12) -0.0066(11) 0.0398(14)
 C004 0.0524(14) 0.0464(17) 0.0497(19) 0.0011(13) 0.0006(7) 0.0232(8)
 C1 0.251(18) 0.193(14) 0.46(3) 0.026(19) 0.17(2) 0.135(14)
 C2 0.30(2) 0.216(18) 0.45(3) -0.18(2) -0.07(2) 0.148(16)

_geom_special_details
;
 All esds (except the esd in the dihedral angle between two l.s. planes)
 are estimated using the full covariance matrix.  The cell esds are taken
 into account individually in the estimation of esds in distances, angles
 and torsion angles; correlations between esds in cell parameters are only
 used when they are defined by crystal symmetry.  An approximate (isotropic)
 treatment of cell esds is used for estimating esds involving l.s. planes.
;
loop_
  _geom_bond_atom_site_label_1
  _geom_bond_atom_site_label_2
  _geom_bond_distance
  _geom_bond_site_symmetry_2
  _geom_bond_publ_flag
 Fe01 C1 1.925(14) 10_455 ?
 Fe01 C1 1.925(14) 3_565 ?
 Fe01 C1 1.925(14) 11_565 ?
 Fe01 C1 1.925(14) 2_665 ?
 Fe01 C1 1.925(14) 12 ?
 Fe01 C1 1.925(14) . ?
 Fe01 C2 1.959(13) 3_565 ?
 Fe01 C2 1.959(13) 10_455 ?
 Fe01 C2 1.959(13) 2_665 ?
 Fe01 C2 1.959(13) 12 ?
 Fe01 C2 1.959(13) 11_565 ?
 Fe01 C2 1.959(13) . ?
 S002 C004 1.720(4) . ?
 N003 H00A 0.8600 . ?
 N003 H00B 0.8600 . ?
 N003 C004 1.316(3) . ?
 C004 N003 1.316(3) 11_565 ?
 C1 C2 1.65(2) 2_665 ?
 C1 C2 1.49(2) . ?
 C2 C1 1.65(2) 3_565 ?

loop_
  _geom_angle_atom_site_label_1
  _geom_angle_atom_site_label_2
  _geom_angle_atom_site_label_3
  _geom_angle
  _geom_angle_site_symmetry_1
  _geom_angle_site_symmetry_3
  _geom_angle_publ_flag
 C1 Fe01 C1 85.4(12) 10_455 12 ?
 C1 Fe01 C1 80.3(18) 12 3_565 ?
 C1 Fe01 C1 85.4(12) 10_455 11_565 ?
 C1 Fe01 C1 152.7(15) 3_565 11_565 ?
 C1 Fe01 C1 85.4(12) 2_665 3_565 ?
 C1 Fe01 C1 85.4(12) 3_565 . ?
 C1 Fe01 C1 80.3(18) 10_455 2_665 ?
 C1 Fe01 C1 116.2(13) 2_665 11_565 ?
 C1 Fe01 C1 152.7(15) 10_455 . ?
 C1 Fe01 C1 116.2(13) 12 . ?
 C1 Fe01 C1 152.7(15) 12 2_665 ?
 C1 Fe01 C1 85.4(12) 2_665 . ?
 C1 Fe01 C1 85.4(12) 12 11_565 ?
 C1 Fe01 C1 116.2(13) 10_455 3_565 ?
 C1 Fe01 C1 80.3(18) 11_565 . ?
 C1 Fe01 C2 80.9(12) 10_455 3_565 ?
 C1 Fe01 C2 104.5(12) 11_565 . ?
 C1 Fe01 C2 80.9(12) 11_565 2_665 ?
 C1 Fe01 C2 104.5(12) 12 3_565 ?
 C1 Fe01 C2 45.0(8) 2_665 2_665 ?
 C1 Fe01 C2 50.4(6) 2_665 3_565 ?
 C1 Fe01 C2 50.4(6) 12 10_455 ?
 C1 Fe01 C2 45.0(8) 3_565 3_565 ?
 C1 Fe01 C2 104.5(12) 10_455 2_665 ?
 C1 Fe01 C2 107.4(11) 11_565 10_455 ?
 C1 Fe01 C2 107.4(11) . 3_565 ?
 C1 Fe01 C2 45.0(8) 12 12 ?
 C1 Fe01 C2 45.0(8) 10_455 10_455 ?
 C1 Fe01 C2 80.9(12) 2_665 11_565 ?
 C1 Fe01 C2 50.4(6) 11_565 12 ?
 C1 Fe01 C2 162.3(15) 3_565 11_565 ?
 C1 Fe01 C2 45.0(8) 11_565 11_565 ?
 C1 Fe01 C2 107.4(11) 2_665 . ?
 C1 Fe01 C2 104.5(12) 2_665 10_455 ?
 C1 Fe01 C2 50.4(6) 10_455 11_565 ?
 C1 Fe01 C2 107.4(11) 12 11_565 ?
 C1 Fe01 C2 104.5(12) . 11_565 ?
 C1 Fe01 C2 107.4(11) 10_455 12 ?
 C1 Fe01 C2 50.4(6) . 2_665 ?
 C1 Fe01 C2 162.3(15) . 10_455 ?
 C1 Fe01 C2 80.9(12) 12 . ?
 C1 Fe01 C2 104.5(12) 3_565 12 ?
 C1 Fe01 C2 50.4(6) 3_565 . ?
 C1 Fe01 C2 162.3(15) 10_455 . ?
 C1 Fe01 C2 45.0(8) . . ?
 C1 Fe01 C2 80.9(12) . 12 ?
 C1 Fe01 C2 162.3(15) 2_665 12 ?
 C1 Fe01 C2 80.9(12) 3_565 10_455 ?
 C1 Fe01 C2 162.3(15) 12 2_665 ?
 C1 Fe01 C2 162.3(15) 11_565 3_565 ?
 C1 Fe01 C2 107.4(11) 3_565 2_665 ?
 C2 Fe01 C2 91.7(12) 3_565 2_665 ?
 C2 Fe01 C2 91.7(12) 11_565 12 ?
 C2 Fe01 C2 70.2(16) 12 . ?
 C2 Fe01 C2 91.7(12) 3_565 . ?
 C2 Fe01 C2 91.7(12) 10_455 11_565 ?
 C2 Fe01 C2 91.7(12) 2_665 . ?
 C2 Fe01 C2 145.3(15) 10_455 2_665 ?
 C2 Fe01 C2 145.3(15) 3_565 12 ?
 C2 Fe01 C2 117.3(18) 10_455 . ?
 C2 Fe01 C2 145.3(15) 11_565 . ?
 C2 Fe01 C2 70.2(16) 11_565 2_665 ?
 C2 Fe01 C2 91.7(12) 10_455 12 ?
 C2 Fe01 C2 70.2(16) 3_565 10_455 ?
 C2 Fe01 C2 117.3(18) 12 2_665 ?
 C2 Fe01 C2 117.3(18) 3_565 11_565 ?
 H00A N003 H00B 120.0 . . ?
 C004 N003 H00A 120.0 . . ?
 C004 N003 H00B 120.0 . . ?
 N003 C004 S002 120.1(2) . . ?
 N003 C004 S002 120.1(2) 11_565 . ?
 N003 C004 N003 119.8(4) . 11_565 ?
 C2 C1 Fe01 68.7(8) . . ?
 C2 C1 Fe01 65.9(6) 2_665 . ?
 C2 C1 C2 126.9(16) . 2_665 ?
 C1 C2 Fe01 66.3(8) . . ?
 C1 C2 Fe01 63.7(7) 3_565 . ?
 C1 C2 C1 112(2) . 3_565 ?

_shelx_res_file
;
    crystal_4_(01)_290k.res created by SHELXL-2014/7

TITL crystal_4_(01)_290k_a.res in R-3c
REM Old TITL Crystal_4_(01)_290K in R-3c #167
REM SHELXT solution in R-3c
REM R1 0.196, Rweak 0.009, Alpha 0.012, Orientation as input
REM Formula found by SHELXT: C3 Fe N6 S3
CELL 0.69804 16.324929 16.324929 12.416329 90 90 120
ZERR 6 0.000477 0.000477 0.00037 0 0 0
LATT 3
SYMM -Y,+X-Y,+Z
SYMM +Y-X,-X,+Z
SYMM +Y,+X,0.5-Z
SYMM -Y+X,-Y,0.5-Z
SYMM -X,-X+Y,0.5-Z
SFAC C H Fe N S
DISP C 0.003 0.002 11.122
DISP Fe 0.355 0.822 3331.634
DISP H -0 0 0.623
DISP N 0.006 0.003 18.867
DISP S 0.121 0.12 507.31
UNIT 78 132 6 36 18

L.S. 10
PLAN  20
BOND $H
LIST 6
fmap 2
ACTA
REM <olex2.extras>
REM <HklSrc "%./Crystal_4_(01)_290K.hkl">
REM </olex2.extras>

WGHT    0.118000    4.416000
FVAR       0.21349
FE01  3    0.333333    0.666667    0.416667    10.16667    0.04861    0.04861 =
         0.13000    0.00000    0.00000    0.02431
S002  5    0.638977    0.666667    0.416667    10.50000    0.05486    0.06484 =
         0.04432   -0.00371   -0.00186    0.03242
N003  4    0.792384    0.681952    0.506700    11.00000    0.06115    0.08210 =
         0.05571   -0.00232   -0.00660    0.03981
AFIX  93
H00A  2    0.845056    0.681936    0.506609    11.00000   -1.20000
H00B  2    0.771108    0.691960    0.565638    11.00000   -1.20000
AFIX   0
C004  1    0.744350    0.666667    0.416667    10.50000    0.05243    0.04639 =
         0.04967    0.00113    0.00057    0.02320

C1    1    0.411989    0.643691    0.320253    11.00000    0.25060    0.19269 =
         0.46015    0.02579    0.16595    0.13503
C2    1    0.315597    0.559607    0.328251    11.00000    0.30490    0.21569 =
         0.44927   -0.17855   -0.06825    0.14838
HKLF 4

REM  crystal_4_(01)_290k_a.res in R-3c
REM R1 =  0.0849 for    1033 Fo > 4sig(Fo)  and  0.0868 for all    1103 data
REM     40 parameters refined using      0 restraints

END

WGHT      0.1172      4.3568

REM Highest difference peak  1.053,  deepest hole -0.437,  1-sigma level  0.114
Q1    1   0.4658  0.7024  0.3703  11.00000  0.05    0.52
Q2    1   0.7737  0.6759  0.4649  11.00000  0.05    0.44
Q3    1   0.3135  0.6047  0.2822  11.00000  0.05    0.43
Q4    1   0.3783  0.5723  0.3853  11.00000  0.05    0.24
Q5    1   0.3611  0.7221  0.3846  11.00000  0.05    0.21
Q6    1   0.3333  0.6667  0.3106  10.33333  0.05    0.16
Q7    1   0.2692  0.4840  0.2904  11.00000  0.05    0.15
Q8    1   0.6411  0.5964  0.3770  11.00000  0.05    0.13
Q9    1   0.5473  0.6351  0.3614  11.00000  0.05    0.13
Q10   1   0.4858  0.6612  0.3051  11.00000  0.05    0.10
Q11   1   0.3966  0.6871  0.3605  11.00000  0.05    0.10
Q12   1   0.7137  0.7716  0.3895  11.00000  0.05    0.10
Q13   1   0.8908  0.7569  0.4129  11.00000  0.05    0.09
Q14   1   0.7114  0.7117  0.3627  11.00000  0.05    0.09
Q15   1   0.8903  0.7580  0.6091  11.00000  0.05    0.09
Q16   1   0.6168  0.6268  0.3121  11.00000  0.05    0.08
Q17   1   0.8987  0.6476  0.4460  11.00000  0.05    0.08
Q18   1   0.2184  0.4850  0.2972  11.00000  0.05    0.07
Q19   1   0.5855  0.6833  0.3427  11.00000  0.05    0.07
Q20   1   0.7823  0.6680  0.6985  11.00000  0.05    0.06
;
_shelx_res_checksum               48575
_shelx_hkl_file
;
   0   0   3   -0.02    0.11
   0   0  -3   -0.05    0.09
   0   0   6  714.69   45.61
   0   0  -6  729.11   45.38
   0   0   9   -0.06    0.25
   0   0  -9    0.04    0.17
   0   0  12  388.81   24.23
   0   0 -12  359.57   23.70
  -1   1 -14    0.77    0.35
  -1   0  14    0.76    0.45
   1   0 -14    0.80    0.38
   0  -1 -11   -0.05    0.19
   1   0 -11    0.05    0.16
   0   1  11    0.07    0.22
  -1   0  11    0.08    0.28
   0  -1  -8  107.55    7.73
   0   1   8  100.63    7.91
   1  -1   8  136.12    8.30
   1   0  -8  133.11    8.07
  -1   0   8  134.69    8.51
  -1   1  -8  118.40    7.90
   1   0  -5    0.03    0.13
   0  -1  -5   -0.11    0.10
   0   1   5   -0.03    0.13
   1  -1   2 1969.52  116.82
  -1   0   2 1883.02  116.87
  -1   1  -2 1803.77  116.71
   1   0  -2 1891.29  116.78
   0  -1   1   -0.04    0.10
   0   1  -1    0.01    0.06
   1  -1  -1    0.11    0.07
  -1   1   1    0.04    0.06
   0   1  -4  262.23   15.80
   1  -1  -4  251.30   15.69
  -1   1   4  254.91   15.84
   1   0   4  243.02   15.78
  -1   0  -4  215.96   15.58
   0  -1   7    0.11    0.18
  -1   0  -7    0.26    0.15
   1   0   7    0.09    0.21
  -1   1   7    0.25    0.23
   1  -1  -7    0.03    0.13
   1   0  10    0.61    0.32
   1  -1 -10    1.12    0.35
   0   1 -10    0.94    0.35
  -1   0 -10    1.12    0.33
  -1   1  10    1.18    0.44
   0  -1  10    0.98    0.42
   1  -1 -13   -0.06    0.25
   0  -1  13   -0.09    0.35
   0   1 -13    0.11    0.24
  -1   0 -13   -0.05    0.17
  -1   1  13    0.17    0.30
   1   0  13    0.13    0.22
  -2   1   0  389.96   26.19
  -1   2   0  444.68   26.21
   1  -2   0  393.49   26.29
   2  -1   0  443.47   26.24
   1   1   0  457.22   26.25
  -1  -1   0  386.34   26.29
   1  -2  -3 2706.36  171.13
   2  -1  -3 2825.73  171.28
  -2   1   3 2748.51  171.34
   1   1  -3 2621.09  171.27
   2  -1   3 2872.34  171.23
  -1  -1   3 2819.55  171.41
  -2   1  -3 2535.46  171.11
  -1   2   3 2745.90  171.15
  -1   2  -3 2622.51  171.23
  -2   1   6    1.73    0.41
   1  -2   6    1.53    0.42
  -1   2  -6    0.82    0.26
  -1   2   6    1.06    0.29
   1   1   6    1.33    0.32
  -1  -1  -6    0.65    0.19
   2  -1   6    1.66    0.42
   1  -2  -6    0.78    0.24
  -1  -1   6    1.66    0.49
   2  -1  -6    0.72    0.28
   1   1  -6    1.07    0.32
   1   1   9  402.68   27.79
  -1  -1   9  531.16   28.56
  -1   2   9  395.98   27.92
   1  -2  -9  412.11   27.67
   2  -1  -9  423.22   27.79
   1  -2   9  579.75   28.49
  -2   1  -9  424.50   27.62
   2  -1   9  529.82   28.10
   1   1  -9  488.14   27.96
  -2   1   9  420.49   28.11
  -1  -1  -9  383.08   27.51
  -1   2  -9  446.56   27.81
   1   1  12   47.52    3.82
  -1   2  12   43.43    4.01
   2  -1 -12   49.76    3.82
   1   1 -12   50.19    3.86
   1  -2  12   65.26    4.31
  -1   2 -12   56.41    3.90
   1  -2 -12   45.35    3.67
  -1  -1 -12   44.60    3.57
  -1  -1  12   57.88    4.49
  -2   1  12   47.95    4.14
   2   0 -13   -0.06    0.21
   0  -2 -13    0.04    0.17
  -2   0  13    0.10    0.29
   0   2  13   -0.07    0.27
  -2   2 -13   -0.24    0.25
   2  -2  13   -0.07    0.22
   2  -2  10   82.97    5.13
   2   0 -10   69.34    4.82
  -2   2 -10   69.83    4.61
   0   2  10   54.33    4.68
   0  -2 -10   54.68    4.40
   0  -2  -7    0.05    0.12
   2  -2   7    0.24    0.21
  -2   2  -7   -0.04    0.13
   2   0  -7    0.04    0.16
   0   2   7   -0.04    0.17
   0   2   4  186.51   12.93
   0  -2  -4  221.48   12.91
  -2   2  -1    0.05    0.06
   2   0  -1    0.11    0.11
   2   0   2 3626.54  218.84
  -2   0  -2 3221.93  218.79
   0   2  -2 3657.03  219.05
   0  -2   2 4019.21  219.27
   2  -2  -2 3772.10  219.02
  -2   2   2 3687.67  218.98
   2   0   5    0.05    0.11
   0  -2   5   -0.06    0.20
   0   2  -5    0.07    0.14
  -2   0  -5    0.02    0.06
   0  -2   8   28.78    2.44
   2  -2  -8   23.69    2.02
   0   2  -8   25.76    2.08
  -2   0  -8   24.47    1.85
   2   0   8   21.89    1.94
  -2   2   8   20.35    2.09
   2   0  11    0.05    0.18
  -2   0 -11    0.10    0.14
   0  -2  11   -0.09    0.29
   2  -2 -11   -0.05    0.22
  -2   2  11    0.15    0.27
   0   2 -11   -0.11    0.19
   2   1 -14    0.13    0.29
  -2  -1  14   -0.10    0.28
  -2   3 -11    1.02    0.33
  -2  -1  11    0.09    0.33
  -1   3  11    0.06    0.22
  -1  -2 -11    0.30    0.18
   2   1 -11    0.06    0.20
   3  -1 -11    0.06    0.29
   1   2  11    0.04    0.18
   2  -3  11    0.99    0.43
  -3   1  11    0.38    0.44
   1  -3 -11    0.31    0.22
  -1  -2  -8   25.54    1.90
   1  -3  -8   23.46    1.97
   3  -2   8   25.32    2.18
   3  -1  -8   29.55    2.34
   2  -3   8   34.15    2.52
  -3   1   8   24.78    2.38
   1   2   8   19.76    1.92
  -2  -1   8   35.39    2.76
  -1   3   8   21.74    2.09
  -3   2  -8   26.47    2.03
  -2   3  -8   31.59    2.25
   2  -3   5  233.91    9.28
  -3   1   5  205.87    9.27
  -2   3  -5  196.45    8.86
   2   1  -5  190.63    9.03
  -3   2  -5  190.51    8.67
  -2  -1   5  211.53    9.33
   3  -1  -5  171.71    8.86
   3  -2   5  216.58    9.00
  -1   3   5  166.70    8.60
  -2  -1   2  573.66   32.51
  -1   3   2  484.95   31.96
   1  -3  -2  491.41   32.02
   2  -3   2  508.19   32.30
   3  -2   2  595.43   32.27
   2   1  -2  480.59   32.24
  -3   2  -2  526.69   32.09
  -3   1   2  531.04   32.38
   3  -1  -2  605.89   32.41
  -2   3  -2  514.07   32.16
  -1   3  -1   70.05    4.23
   2   1   1   64.89    4.15
  -3   2   1   62.04    4.16
   2  -3  -1   57.37    4.14
   1  -3   1   66.21    4.36
  -3   1  -1   63.96    4.07
  -1  -2   1   57.40    4.32
   3  -2  -1   68.17    4.26
   1   2  -1   63.79    4.24
  -2   3   1   61.79    4.07
   3  -1   1   66.13    4.15
  -2  -1  -1   60.47    4.16
  -2  -1  -4   71.14    5.18
  -1  -2   4  107.51    6.02
   2   1   4   78.81    5.24
   1  -3   4  114.86    6.04
  -2   3   4   95.16    5.54
  -1   3  -4   88.24    5.56
   3  -1   4   93.62    5.49
   1   2  -4   87.30    5.61
   2  -3  -4   90.56    5.49
  -3   1  -4   79.62    5.29
   3  -1   7   39.05    2.72
  -1  -2   7   52.12    3.43
   2  -3  -7   30.98    2.53
   2   1   7   30.36    2.46
   3  -2  -7   32.22    2.66
  -2  -1  -7   29.71    2.35
  -1   3  -7   36.42    2.73
  -3   2   7   38.66    2.95
   1  -3   7   50.88    3.29
  -2   3   7   33.03    2.68
   1   2  -7   40.37    2.88
  -3   1  -7   34.03    2.49
  -2   3  10    0.07    0.24
   3  -1  10    0.10    0.21
  -1   3 -10    0.37    0.26
  -1  -2  10    0.25    0.35
   1  -3  10    0.56    0.37
   3  -2 -10    0.31    0.25
   2  -3 -10    0.14    0.18
  -3   2  10    0.08    0.22
   1   2 -10    0.05    0.18
  -2  -1 -10    0.22    0.16
  -3   1 -10    0.21    0.19
   2   1  10    0.16    0.16
  -3   1 -13    0.59    0.29
   1  -3  13    1.62    0.58
   3  -1  13    1.60    0.52
  -3   2  13    1.26    0.57
   3  -2 -13    1.40    0.47
  -1   3 -13    1.11    0.39
   3   0 -12  133.56    8.68
  -3   3 -12  136.79    8.40
  -3   0  12  138.68    9.27
   0  -3 -12  114.06    8.12
   3  -3  12  153.70    8.85
  -3   3  -9    0.04    0.16
   3  -3   9   -0.06    0.19
  -3   3  -6 2206.54  128.56
   0   3   6 1794.03  128.41
   0  -3  -6 1949.52  128.33
   3   0  -6 2200.30  128.78
  -3   0   6 2378.33  129.06
   3  -3   6 2442.44  128.85
  -3   0   3    0.27    0.21
   3   0  -3   -0.03    0.13
  -3   3   0 9999.00  571.30
   3  -3   0 9110.45  571.37
   3   0   0 9110.63  571.44
  -3   0   0 9012.88  571.44
   0  -3   0 8367.58  571.49
   0   3   0 9016.88  571.36
   3   0   3   -0.01    0.06
  -3   0  -3    0.11    0.06
   0   3  -3   -0.03    0.12
   3  -3  -3   -0.03    0.13
  -3   3   3   -0.03    0.11
   0  -3   3    0.05    0.21
   3   0   6 2167.95  132.81
  -3   3   6 2199.57  133.11
   0   3  -6 2148.76  133.01
  -3   0  -6 1978.21  132.62
   0  -3   9    0.08    0.27
   0   3  -9    0.20    0.21
   3   0   9    0.04    0.19
   3  -3  -9    0.05    0.20
  -3   0  -9    0.03    0.14
  -3   3   9   -0.06    0.23
   0   3 -12  162.59   10.80
   3   0  12  174.37   10.82
   3  -3 -12  146.68   10.70
  -3   0 -12  153.65   10.41
  -3   3  12  139.31   11.01
  -4   2   0 1557.75   97.75
   2  -4   0 1456.06   97.89
   4  -2   0 1647.64   97.84
   2   2   0 1535.49   97.81
  -2   4   0 1713.13   97.77
  -2  -2   0 1436.18   97.94
   4  -2   3 1696.32   98.00
   2  -4  -3 1551.11   97.86
  -4   2   3 1620.91   98.21
  -2  -2   3 1527.22   98.27
  -4   2  -3 1502.24   97.81
   2   2  -3 1497.87   98.11
  -2   4   3 1572.31   97.78
   4  -2  -3 1576.42   98.16
   2  -4   3 1779.09   98.28
  -2   4  -3 1522.24   97.98
   2   2  -6  187.79    9.83
  -2  -2   6  237.28   10.51
   4  -2  -6  183.85    9.80
   4  -2   6  230.88    9.91
   2  -4   6  260.98   10.40
  -2   4   6  192.36    9.63
   2   2   6  117.14    9.13
  -2  -2  -6  110.31    9.06
  -4   2   6  220.02   10.22
  -4   2  -6  176.27    9.42
   2  -4  -6  166.08    9.42
  -2   4  -6  195.90    9.76
  -4   2  -9  264.53   15.18
  -2  -2   9  324.67   16.38
  -2   4  -9  272.02   15.42
   4  -2  -9  244.35   15.45
   2  -4  -9  210.50   15.07
   4  -2   9  323.30   15.79
   2   2  -9  264.73   15.59
   2  -4   9  318.10   15.93
   2   2   9  193.16   14.97
  -2  -2  -9  205.17   14.86
  -4   2   9  237.11   15.67
  -2   4   9  207.24   15.24
  -2  -2 -12    0.18    0.16
  -2   4 -12    0.59    0.33
   2  -4  12    0.78    0.42
   4  -2 -12    0.47    0.33
   2  -4 -12    0.22    0.24
  -2   4  12    0.34    0.35
   2   2 -12    0.25    0.29
  -4   2  12    0.20    0.44
  -2  -2  12    0.30    0.34
   2   2  12    0.22    0.23
   2   2 -15   22.71    2.27
   3   1 -13    1.67    0.52
   4  -3  13    2.22    0.67
  -3   4 -13    1.21    0.38
  -3  -1  13    2.63    0.81
   3  -4  13    2.18    0.59
  -4   1  13    1.66    0.62
  -4   3 -13    2.16    0.49
   4  -3  10    5.90    0.91
  -1  -3 -10    4.15    0.49
  -3  -1  10    6.30    1.19
   1   3  10    2.52    0.47
   3  -4  10    6.34    0.97
  -4   1  10    5.16    1.00
   4  -1 -10    5.04    0.83
  -3   4 -10    5.95    0.76
   1  -4 -10    5.06    0.62
   3   1 -10    6.90    0.96
  -1   4  10    3.98    0.67
   3  -4   7   44.04    2.53
  -3   4  -7   34.61    2.05
   4  -1  -7   40.25    2.38
  -3  -1   7   45.10    2.78
   1  -4  -7   34.41    1.80
   4  -3   7   53.67    2.58
  -1   4   7   27.66    1.79
   3   1  -7   37.46    2.38
  -4   1   7   43.01    2.74
  -4   3  -7   43.73    2.14
  -4   3  -4  890.19   57.20
  -4   1   4  994.04   57.72
   4  -3   4 1026.01   57.47
  -3   4  -4  911.07   57.29
   1  -4  -4  848.27   57.11
   3  -4   4 1002.05   57.56
   4  -1  -4  865.74   57.47
  -3  -1   4 1044.85   57.84
   3   1  -4  874.61   57.46
   3   1  -1  959.86   62.68
   1  -4  -1  962.18   62.60
  -1   4   1 1021.73   62.45
   4  -1  -1 1098.80   62.81
  -3   4  -1 1035.53   62.52
  -4   1   1 1022.68   62.71
  -3  -1   1  996.01   62.80
   1   3   1  987.53   62.48
   4  -3   1 1022.25   62.60
  -1  -3  -1  860.79   62.58
   3  -4   1 1035.75   62.73
  -4   3  -1 1038.02   62.48
  -3   4   2  159.61   10.26
   3   1   2  160.15   10.36
  -3  -1  -2  166.73   10.34
   3  -4  -2  161.78   10.36
   4  -1   2  168.03   10.36
  -4   1  -2  159.72   10.25
  -1   4  -5  235.33   15.44
   4  -3  -5  227.81   15.50
   1   3  -5  254.49   15.61
   4  -1   5  278.59   15.35
   3   1   5  235.79   15.06
  -1  -3   5  324.97   16.23
   1  -4   5  320.00   16.10
  -4   3   5  264.17   15.65
  -3  -1  -5  216.49   14.98
   4  -3  -8  120.64    8.29
   3   1   8  118.91    8.00
  -4   3   8  137.17    8.71
  -3  -1  -8  116.43    7.83
   3  -4  -8  116.32    8.14
  -4   1  -8  128.67    8.00
   4  -1   8  142.46    8.28
  -3   4   8  116.66    8.35
  -1   4 -11   11.59    1.31
   3   1  11   11.11    1.17
   1   3 -11   10.88    1.32
  -3  -1 -11   11.22    1.01
  -4   3  11    7.91    1.31
   4  -1  11   12.01    1.36
  -4   1 -11   10.99    1.09
  -1  -3  11   15.00    1.80
  -3   4  11   10.29    1.39
   4  -3 -11   10.00    1.27
   3  -4 -11    9.60    1.18
   1  -4  14    3.11    0.80
   1   3 -14    3.56    0.74
  -1   4 -14    2.63    0.60
  -1  -3  14    2.68    0.81
   4   0 -14   12.44    1.52
  -4   0  14   11.29    1.72
  -4   0  11   -0.10    0.32
   4  -4  11    0.13    0.28
   4   0 -11   -0.07    0.30
  -4   4 -11   -0.05    0.20
   4  -4   8  273.42   11.29
   0  -4  -8  155.21   10.12
  -4   4  -8  249.73   10.77
  -4   4  -5    0.03    0.14
   4  -4   5   -0.05    0.17
   4   0  -5   -0.05    0.18
  -4   0   5   -0.07    0.20
  -4   0   2 1924.94  118.47
   4  -4   2 2143.74  118.43
  -4   4  -2 1896.25  118.10
   0  -4  -2 1836.27  118.07
   4   0  -2 1869.90  118.35
   0   4   2 1866.09  117.95
  -4   0  -1   -0.03    0.11
   4   0   1    0.03    0.13
   4  -4  -4  395.62   27.19
  -4   0  -4  433.95   26.79
  -4   4   4  419.92   27.15
   0  -4   4  489.67   27.62
   0   4  -4  418.81   27.19
   4  -4  -7   -0.09    0.19
  -4   0  -7    0.11    0.10
  -4   4   7    0.06    0.15
   0   4  -7    0.05    0.17
   0  -4   7   -0.23    0.29
   4   0   7    0.27    0.17
  -4   0 -10  160.13   10.35
   4  -4 -10  148.15   10.70
   4   0  10  178.73   10.66
  -4   4  10  128.39   10.78
   0   4 -10  158.41   10.79
  -4   4  13   -0.11    0.40
   0   4 -13   -0.06    0.25
   4  -4 -13    0.28    0.32
   0  -4  13   -0.10    0.43
  -3  -2  14    3.22    0.89
   5  -2 -14    1.98    0.60
   3  -5  14    2.83    0.72
  -3   5 -14    2.71    0.59
  -5   2  14    1.78    0.73
   3   2 -14    1.63    0.53
  -3  -2  11   38.28    3.08
   3  -5  11   40.75    2.78
  -2   5  11   26.41    2.22
   2  -5 -11   28.24    2.02
  -2  -3 -11   19.77    1.59
  -5   2  11   35.18    2.88
  -3   5 -11   34.43    2.25
   5  -2 -11   33.44    2.49
   3   2 -11   36.85    2.61
  -3  -2   8   39.02    3.27
   5  -3   8   35.33    2.83
  -5   3  -8   33.37    2.56
   3   2  -8   32.96    2.86
  -3  -2   5   25.51    2.18
   5  -2  -5   18.80    1.87
  -5   2   5   22.27    2.06
   2  -5  -5   18.64    1.60
   3   2  -5   19.77    1.90
  -5   3  -5   19.53    1.61
  -3   5  -5   20.27    1.72
   5  -3   5   25.06    1.92
   3  -5   5   23.92    2.02
  -2   5   5   21.03    1.64
  -2  -3  -2    5.49    0.67
   2   3   2    7.44    0.65
  -3  -2   2    8.69    1.06
   5  -3   2    6.43    0.75
   3   2  -2    7.21    0.85
  -2   5   2    7.45    0.63
  -5   2   2    7.79    0.91
   5  -2  -2    6.80    0.89
  -5   3  -2    7.27    0.68
   3  -5   2    7.15    0.90
  -3   5  -2    8.49    0.83
   2  -5  -2    6.02    0.68
  -2   5  -1  854.81   53.62
  -3  -2  -1  824.94   53.67
   5  -3  -1  908.69   53.75
  -3   5   1  882.52   53.48
   2  -5   1  796.66   53.75
   3  -5  -1  848.52   53.65
   3   2   1  850.06   53.57
  -5   3   1  868.31   53.61
  -2  -3   4  243.93   14.06
   2  -5   4  262.31   13.97
   3  -5  -4  212.32   13.49
  -2   5  -4  242.95   13.64
   5  -3  -4  226.10   13.77
   3   2   4  185.27   13.16
  -5   3   4  237.38   13.87
  -3   5   4  215.78   13.35
   2   3  -4  225.07   13.69
  -3  -2  -4  195.81   13.18
  -5   2  -7   18.74    1.33
   2  -5   7   26.90    2.05
   5  -2   7   25.14    1.73
   3   2   7   15.73    1.09
   3  -5  -7   16.74    1.43
  -3   5   7   18.87    1.56
  -3  -2  -7   12.43    1.01
  -2   5  -7   21.32    1.66
  -5   3   7   22.31    1.94
  -2   5 -10    0.05    0.18
   2  -5  10    0.08    0.31
   3  -5 -10    0.04    0.18
  -5   2 -10    0.19    0.18
   2   3 -10    0.13    0.24
  -5   3  10    0.24    0.31
  -2  -3  10    0.29    0.32
   3   2  10    0.10    0.14
   5  -2  10    0.05    0.20
   5  -3 -10    0.06    0.18
  -3  -2 -10    0.02    0.09
  -3   5  10    0.12    0.21
  -5   2 -13   13.36    1.31
  -5   3  13   11.98    1.79
   5  -3 -13   12.47    1.56
  -2   5 -13   13.36    1.48
  -2  -3  13   15.82    2.03
   2  -5  13   19.55    1.95
   2   3 -13   13.56    1.57
  -4   5 -12   12.07    1.30
  -5   4 -12   11.60    1.21
   5  -4  12   15.91    1.70
   1  -5 -12    8.49    1.00
  -4  -1  12   14.41    1.91
  -5   1  12   10.44    1.64
   5  -1 -12   10.52    1.38
   4   1 -12   13.20    1.54
   4  -5  12   14.03    1.58
   5  -1  -9  113.41    7.42
   4   1  -9  115.83    7.40
  -5   4  -9  122.39    7.09
   1  -5  -9   89.15    6.72
   4  -5   9  136.20    7.61
  -1   5   9   71.91    6.76
  -4  -1   9  128.38    7.91
  -4   5  -9  118.90    7.12
  -5   1   9  116.34    7.67
  -4  -1   6   26.56    2.34
   5  -1  -6   25.77    2.16
  -5   1   6   27.04    2.41
  -5   4  -6   28.44    1.92
   4  -5   6   29.18    2.25
  -1   5   6   18.10    1.66
   4   1  -6   23.97    2.10
   1  -5  -6   20.33    1.64
  -4   5  -6   27.74    2.00
  -4  -1   3  537.87   26.34
  -5   4  -3  530.31   25.70
  -5   1   3  559.35   26.31
   4   1  -3  464.02   25.93
  -4   5  -3  471.56   25.69
   4  -5   3  588.44   26.23
   5  -1  -3  508.21   26.11
  -1   5   3  490.35   25.39
   5  -4   3  559.09   26.03
   1  -5  -3  506.57   25.52
  -4   5   0  364.31   21.68
   5  -4   0  361.21   21.83
   1   4   0  352.74   21.80
   1  -5   0  282.75   21.81
  -1  -4   0  328.02   22.01
   4  -5   0  370.09   21.90
  -5   4   0  346.29   21.65
  -1   5   0  337.37   21.72
   4  -5  -3 1212.26   82.52
   5  -1   3 1324.23   82.43
  -5   1  -3 1318.37   82.31
  -4  -1  -3 1391.25   82.44
   1  -5   3 1467.15   83.07
  -1   5  -3 1293.17   82.67
  -5   4   3 1220.11   82.66
   1   4  -3 1285.47   82.73
  -1  -4   3 1615.35   83.37
   5  -4  -3 1326.41   82.80
   4   1   3 1310.37   82.48
  -1  -4   6   26.67    2.51
   1   4  -6   22.58    2.10
   1  -5   6   25.91    2.46
  -4  -1  -6   24.27    1.61
  -1   5  -6   21.74    2.04
   4   1   6   23.29    1.69
   4  -5  -6   20.49    1.97
  -4   5   6   21.78    2.04
   5  -4  -6   22.74    2.11
  -5   4   9   72.15    5.50
   4  -5  -9   63.04    4.96
   5  -1   9   82.93    5.08
   5  -4  -9   62.19    5.06
  -5   1  -9   70.95    4.76
  -4   5   9   65.18    5.23
  -4  -1  -9   67.01    4.60
   4   1   9   75.21    4.79
   1   4  -9   70.60    5.16
   5  -1  12   20.99    1.83
   1   4 -12   15.86    1.73
   5  -4 -12   15.89    1.73
  -1   5 -12   14.52    1.67
  -1  -4  12   21.54    2.31
  -5   1 -12   15.88    1.44
  -4  -1 -12   16.38    1.34
  -5   4  12   12.47    1.81
   1  -5  12   20.77    2.12
   1   4 -15   24.76    2.41
  -1  -4  15   29.05    2.85
   5   0 -13    0.08    0.38
   5  -5  13    0.08    0.34
  -5   0  13   -0.13    0.50
   5  -5  10   16.76    1.54
   5   0 -10   13.85    1.38
  -5   5 -10   13.80    1.12
  -5   0  10   14.19    1.64
   5  -5   7   -0.06    0.24
  -5   0   4   93.38    5.69
   5   0  -4   83.20    5.36
   0   5   4   75.03    4.68
   5  -5   4   85.46    5.35
  -5   5  -4   85.64    5.06
   0  -5  -1   -0.04    0.15
   5  -5   1   -0.04    0.14
  -5   5  -1    0.02    0.08
   5   0  -1    0.05    0.18
   0   5   1    0.02    0.10
  -5   0   1   -0.05    0.15
   0   5  -2  466.95   30.05
  -5   5   2  456.97   29.86
  -5   0  -2  505.72   30.02
   0  -5   2  506.11   30.47
   5  -5  -2  478.61   29.97
   5   0   2  461.00   30.04
  -5   0  -5    0.17    0.10
   5   0   5    0.31    0.16
   0   5  -5    0.09    0.15
  -5   5   5    0.05    0.17
   0  -5   5    0.15    0.31
   5  -5  -5    0.10    0.17
   5  -5  -8    4.02    0.73
   0   5  -8    4.41    0.75
  -5   5   8    4.16    0.79
   5  -5 -11   -0.06    0.29
  -5   0 -11   -0.02    0.12
   5   0  11   -0.09    0.19
  -5   5  11    0.08    0.23
   0  -5  14   -0.09    0.30
   0   5 -14    0.20    0.29
  -3   6   0  409.41   25.74
   3  -6   0  388.13   25.94
  -6   3   0  402.09   25.78
   6  -3   0  438.38   25.97
  -3  -3  -3    0.96    0.23
  -3  -3   3    1.26    0.43
   3   3   3    1.17    0.22
   3   3  -3    1.31    0.38
   6  -3   3    1.30    0.31
  -3   6  -3    1.33    0.32
  -6   3  -3    0.88    0.20
   6  -3  -3    0.94    0.36
  -6   3   3    0.98    0.33
   3  -6   3    1.07    0.36
  -3   6  -6 1360.87   88.58
   3  -6   6 1540.85   89.01
   6  -3  -6 1332.90   88.79
  -6   3  -6 1381.14   88.39
   6  -3   6 1491.93   88.63
  -6   3   6 1464.47   89.05
   3  -6   9   16.67    1.74
   3   3  -9   16.14    1.73
   6  -3   9   16.02    1.61
  -3   6  -9   15.91    1.51
   3  -6  -9   11.28    1.26
  -6   3   9   17.55    1.98
  -6   3  -9   15.39    1.33
   6  -3  -9   11.84    1.50
  -3   6   9   10.35    1.33
  -3  -3   9   19.36    2.15
  -6   3 -12   50.37    3.45
  -3  -3  12   52.87    4.28
  -6   3  12   38.20    3.93
   3   3 -12   47.34    3.77
   6  -3  12   53.96    3.92
   6  -3 -12   42.60    3.74
  -3   6 -12   43.27    3.51
   3  -6 -12   39.86    3.41
  -3   6  12   35.70    3.53
   3  -6  12   54.20    3.97
   3   3 -15    0.22    0.34
  -3  -3  15    0.69    0.37
   4  -6  13    4.02    0.83
  -4  -2  13    2.96    0.91
  -6   2  13    3.34    0.98
   6  -2 -13    2.93    0.71
  -6   4 -13    3.38    0.60
   6  -4  13    3.51    0.77
  -4   6 -13    3.89    0.68
   4   2 -13    3.44    0.78
   4   2 -10    8.75    1.23
  -6   2  10    8.95    1.37
   6  -2 -10    8.28    1.21
   4  -6  10    9.40    1.28
  -4  -2  10   10.10    1.53
  -4   6 -10    8.79    1.04
  -6   4 -10    9.40    0.99
   6  -4  10    9.30    1.21
  -2   6   7   21.77    2.02
  -4  -2   7   35.60    2.87
   2  -6  -7   23.14    1.97
   4   2  -7   33.44    2.59
   6  -4   7   31.44    2.47
  -6   4  -7   28.49    2.11
   6  -4   4   66.04    4.77
  -2   6   4   67.60    4.43
   6  -2  -4   72.53    5.06
  -6   2   4   79.15    5.22
   4  -6   4   71.77    5.01
   4   2  -4   63.73    4.86
  -4  -2   4   71.87    5.19
  -4   6  -4   75.57    4.80
  -6   4  -4   65.63    4.54
   2  -6  -4   62.30    4.46
   4   2  -1   13.33    1.33
   2   4   1   14.24    1.25
  -6   2   1   14.64    1.40
   6  -2  -1   13.31    1.42
  -4  -2   1   12.62    1.44
  -6   4  -1   13.88    1.13
   6  -4   1   14.26    1.28
  -4   6  -1   14.41    1.21
   4  -6   1   14.67    1.40
  -2  -4  -1   13.42    1.37
   2  -6   2  324.21   21.82
  -4  -2  -2  331.99   21.63
  -2   6  -2  334.01   21.62
  -6   2  -2  332.40   21.46
   6  -2   2  351.05   21.57
  -2  -4   2  333.24   22.03
  -6   4   2  344.86   21.64
   2   4  -2  338.29   21.75
   6  -4  -2  357.10   21.85
  -4   6   2  344.04   21.40
   4   2   2  362.90   21.60
   4  -6  -2  325.55   21.56
   2  -6   5   87.60    5.51
   4   2   5   63.31    4.69
  -4   6   5   76.87    5.05
   2   4  -5   71.21    5.20
  -2   6  -5   73.62    5.12
  -4  -2  -5   67.92    4.71
  -6   4   5   80.86    5.42
  -2  -4   5   82.62    5.70
   4  -6  -5   70.31    5.07
  -6   2  -5   72.20    4.76
   6  -2   5   78.77    4.98
   6  -4  -5   72.92    5.27
  -4  -2  -8    3.04    0.29
  -4   6   8    2.25    0.53
   2   4  -8    3.15    0.67
  -2  -4   8    3.54    0.85
   4   2   8    1.82    0.27
  -6   2  -8    2.91    0.44
   6  -2   8    3.20    0.57
   4  -6  -8    3.16    0.56
  -2   6  -8    4.38    0.70
   2  -6   8    3.94    0.78
   4   2  11    6.19    0.59
  -4   6  11    5.57    0.94
  -6   4  11    6.99    1.16
  -6   2 -11    7.97    0.86
   4  -6 -11    6.95    0.92
  -4  -2 -11    5.62    0.51
   6  -4 -11    6.76    1.02
   6  -2  11    8.20    1.04
   2   4 -11    7.71    1.04
  -2   6 -14    0.06    0.22
   2  -6  14   -0.17    0.25
  -5   6 -14    1.70    0.47
  -6   1  14    1.75    0.82
   6  -1 -14    1.75    0.62
  -5  -1  14    1.35    0.68
   5  -6  14    2.16    0.69
  -6   1  11  100.01    5.10
  -6   5 -11  103.68    3.98
   5  -6  11  129.95    5.19
  -5   6 -11  116.20    4.30
   6  -1 -11  107.11    4.72
   6  -5  11  125.10    4.94
   5   1  -8    0.84    0.38
   5  -6   8    1.96    0.56
  -5   6  -8    1.55    0.40
   1  -6  -8    0.46    0.14
  -5  -1   8    2.10    0.64
   6  -1  -8    0.86    0.39
  -1   6   8    0.54    0.17
  -6   1   8    1.74    0.59
  -6   1   5   19.98    2.06
  -5   6  -5   20.61    1.67
  -6   5  -5   18.90    1.59
  -5  -1   5   22.14    2.19
   6  -1  -5   20.15    1.91
   5  -6   5   22.99    2.01
   1  -6  -5   15.88    1.41
  -1   6   5   18.65    1.42
   6  -5   5   22.38    1.92
   5   1  -5   19.59    1.86
  -1  -5  -2    4.66    0.71
   1   5   2    8.50    0.76
  -5  -1   2    7.66    1.05
  -1   6   2    8.33    0.72
   6  -5   2    6.01    0.81
  -5   6  -2    7.87    0.80
   6  -1  -2    6.64    0.94
   5   1  -2    7.14    0.94
   5  -6   2    6.83    0.94
   1  -6  -2    6.01    0.77
  -6   5  -2    7.39    0.73
  -6   1   2    6.65    0.99
   6  -5  -1 1997.19  118.42
   5  -6  -1 1822.47  118.41
  -5   6   1 1858.74  118.21
  -1  -5   1 1750.48  118.74
  -1   6  -1 1933.57  118.44
   1  -6   1 1858.86  118.70
  -6   5   1 1990.04  118.24
   6  -1   1 1835.69  118.57
   1   5  -1 1922.76  118.48
  -6   1  -1 1914.19  118.53
   1  -6   4  125.24    8.34
   5   1   4  118.67    7.74
   1   5  -4  117.59    7.99
   6  -5  -4  112.22    8.04
  -6   5   4  115.00    7.97
  -5   6   4  114.60    7.74
   5  -6  -4  110.43    7.90
  -5  -1  -4  123.88    7.70
  -1   6  -4  117.58    7.94
   6  -1   4  111.94    7.64
  -1  -5   4  130.43    8.51
   6  -1   7   56.87    4.06
   1   5  -7   52.40    4.27
  -6   5   7   61.20    4.56
  -6   1  -7   54.27    3.85
   6  -5  -7   52.59    4.35
   5   1   7   62.14    3.89
  -1   6  -7   54.45    4.29
  -1  -5   7   63.49    4.76
  -5  -1  -7   58.15    3.79
   5  -6  -7   51.25    4.27
  -5   6   7   57.50    4.40
   1   5 -10    9.65    1.26
  -1   6 -10    9.37    1.22
   6  -1  10   12.06    1.22
   6  -5 -10    9.57    1.27
  -5   6  10   10.99    1.48
  -1  -5  10   12.56    1.70
  -5  -1 -10   10.37    0.87
   5   1  10   12.17    1.03
  -6   1 -10   10.59    0.98
  -6   5  10    9.45    1.48
   1  -6  10   15.53    1.82
   5  -6 -10    9.11    1.19
   1  -6  13   39.56    3.28
   1   5 -13   27.94    2.76
  -1  -5  13   41.93    3.53
   6  -5 -13   28.56    2.77
  -6   5  13   23.73    2.90
   6   0 -15    0.08    0.32
  -6   0  15    0.89    0.45
   6   0 -12   48.64    4.18
   6  -6  12   55.20    4.33
  -6   6 -12   52.89    3.89
  -6   0  12   53.56    4.69
  -6   0   9    0.09    0.24
  -6   6  -9    0.08    0.14
   6  -6   9   -0.07    0.23
   6   0  -6  511.78   34.21
  -6   0   6  608.18   34.80
  -6   6  -6  528.67   33.90
   6  -6   6  536.04   34.26
   0  -6  -3   -0.06    0.14
   0   6   3    0.08    0.09
  -6   6  -3    0.06    0.13
  -6   0   3    0.21    0.28
   6  -6   3    0.21    0.23
   6   0  -3   -0.06    0.19
  -6   6   0 1591.71   95.78
   6   0   0 1529.32   96.17
   0  -6   0 1326.63   96.14
   6  -6   0 1598.90   96.01
   0   6   0 1620.54   95.98
  -6   0   0 1452.39   96.18
   0   6  -3    0.19    0.16
   0  -6   3    0.08    0.22
  -6   6   3   -0.07    0.12
   6  -6  -3   -0.05    0.17
  -6   6   6  393.75   25.71
   0   6  -6  382.49   25.53
   6  -6  -6  372.18   25.62
   0  -6   9   -0.10    0.32
   6   0   9    0.06    0.15
   0   6  -9   -0.06    0.26
  -6   0  -9    0.04    0.10
  -6   6   9    0.24    0.33
  -6   6  12   49.90    4.80
   0   6 -12   62.61    4.76
   6  -6 -12   57.77    4.71
   0   6 -15   -0.06    0.27
   0  -6  15    0.30    0.23
   7  -3 -14   16.43    2.02
   4   3 -14   18.09    1.99
   4  -7  14   22.93    2.25
  -7   3  14   17.32    2.36
  -4   7 -14   19.92    1.96
  -4  -3  14   22.18    2.55
   4   3 -11    4.78    0.92
  -4  -3  11    6.49    1.28
  -3   7  11    2.68    0.60
   7  -4  11    4.40    0.81
  -7   4 -11    4.78    0.67
  -7   3  11    4.12    0.93
   3  -7 -11    3.22    0.55
   7  -3 -11    5.03    0.92
  -7   4  -8  211.43   12.31
  -7   3   8  191.96   12.98
   7  -3  -8  181.52   12.61
   7  -4   8  213.49   12.62
   3  -7  -8  161.38   12.12
  -4   7  -8  176.11   12.32
  -4  -3   8  213.05   13.18
   4   3  -8  183.65   12.61
   4  -7   8  197.70   12.71
  -4   7  -5   18.50    1.67
  -7   4  -5   18.05    1.49
   7  -3  -5   18.06    1.93
  -4  -3   5   19.10    2.04
  -7   3   5   20.37    2.07
   4  -7   5   21.08    1.96
   4   3  -5   18.66    1.91
  -4  -3   2 1634.25  108.08
   4   3  -2 1687.71  107.87
  -3   7   2 1750.69  107.50
   3   4   2 1734.92  107.60
   4  -7   2 1846.24  108.11
   3  -7  -2 1587.37  107.70
  -4   7  -2 1730.49  107.67
  -7   4  -2 1687.99  107.50
   7  -4   2 1748.66  107.72
  -7   3   2 1843.94  107.98
   7  -3  -2 1821.34  108.10
  -4   7   1    6.88    0.71
  -3   7  -1    7.58    0.84
  -7   3  -1    7.13    0.77
   7  -4  -1    6.80    0.91
  -3  -4   1    6.55    0.97
   7  -3   1    6.84    0.84
   3  -7   1    6.94    0.97
   3   4  -1    6.81    0.88
  -7   4   1    6.34    0.78
   4  -7  -1    5.75    0.81
   4   3   4  856.72   54.67
  -4  -3  -4  813.29   54.81
   7  -4  -4  835.21   55.23
   3  -7   4  909.12   55.28
  -4   7   4  913.82   54.78
  -7   4   4  929.71   55.41
   4  -7  -4  857.43   54.86
  -3   7  -4  851.75   54.97
   3   4  -4  888.70   55.18
   7  -3   4  914.08   54.95
  -3  -4   4  955.85   55.62
  -7   3  -4  877.90   54.71
   3   4  -7    0.13    0.23
  -3   7  -7    0.10    0.19
  -7   3  -7    0.03    0.12
  -3  -4   7    0.20    0.32
  -4   7   7    0.45    0.27
   3  -7   7    0.35    0.32
   4  -7  -7    0.47    0.24
   7  -3   7    0.17    0.20
   7  -4 -10  113.91    8.56
  -4   7  10   97.21    8.31
   3  -7  10  150.60    8.96
  -3   7 -10  119.34    8.36
   4  -7 -10  107.88    8.21
  -7   3 -10  136.20    8.20
   7  -3  10  136.68    8.53
  -7   4  10  131.68    9.16
  -3  -4  13   -0.11    0.37
  -7   4  13    0.11    0.35
   7  -4 -13    0.16    0.33
   3  -7  13    0.08    0.32
  -3   7 -13    0.21    0.22
   3   4 -13    0.07    0.30
   5   2 -15    5.65    1.00
  -5  -2  15    3.74    0.98
   7  -2 -12   -0.08    0.38
   7  -5  12   -0.07    0.33
   5  -7  12   -0.08    0.28
  -7   5 -12    0.22    0.22
   5   2 -12    0.25    0.37
  -5   7 -12    0.28    0.30
  -7   2  12    0.32    0.42
  -5  -2  12    0.13    0.42
   5   2  -9   89.83    5.95
   7  -5   9  102.33    6.06
  -5   7  -9  105.65    5.87
  -5  -2   9  106.03    6.60
   7  -2  -9   87.96    5.97
  -7   2   9  103.98    6.66
   2  -7  -9   60.38    5.16
   5  -7   9  113.40    6.29
  -7   5  -9   92.73    5.54
  -2   7   9   53.59    5.19
  -2   7   6    6.50    0.71
  -7   2   6    6.95    1.16
   7  -2  -6    6.34    1.03
  -5  -2   6    6.84    1.13
   2  -7  -6    5.85    0.69
   7  -5   6    7.65    0.98
   5   2  -6    6.67    1.00
   2   5   3  161.43    9.46
  -5  -2   3  160.79   10.33
   7  -2  -3  148.84   10.01
   5   2  -3  141.55    9.85
   5  -7   3  157.21    9.99
  -5   7  -3  156.75    9.67
  -7   5  -3  143.46    9.50
  -7   2   3  166.53   10.20
   7  -5   3  130.48    9.62
  -2  -5  -3  122.02    9.53
   2  -7   0  408.57   27.96
  -5  -2   0  387.10   28.02
   7  -5   0  459.62   27.84
  -5   7   0  447.94   27.68
   5  -7   0  410.32   27.91
  -2   7   0  538.11   27.94
  -2  -5   0  407.40   28.21
  -7   5   0  440.02   27.62
   2   5   0  450.87   27.90
   5   2   0  419.87   27.91
   7  -2   0  425.04   28.06
  -7   2   0  445.61   28.00
  -2   7  -3  405.35   26.07
  -7   5   3  419.72   26.27
   7  -2   3  390.62   25.91
  -5   7   3  410.06   25.77
   2  -7   3  456.06   26.54
   2   5  -3  439.05   26.33
   5   2   3  445.79   26.04
  -2  -5   3  418.55   26.72
   5  -7  -3  395.97   25.93
  -7   2  -3  388.01   25.84
  -5  -2  -3  395.77   26.04
   7  -5  -3  413.07   26.38
  -2  -5   6    2.93    0.78
   5   2   6    2.47    0.38
   7  -5  -6    3.45    0.73
  -2   7  -6    2.21    0.53
  -7   2  -6    2.57    0.38
   7  -2   6    2.87    0.48
  -5   7   6    2.39    0.54
   2  -7   6    3.11    0.70
   5  -7  -6    2.24    0.55
  -5  -2  -6    1.92    0.36
   2   5  -6    3.34    0.65
  -7   5   6    2.79    0.68
   7  -2   9   47.04    3.76
  -5   7   9   44.58    4.03
   5  -7  -9   45.03    3.90
  -2   7  -9   54.20    4.05
  -7   2  -9   55.40    3.67
   2   5  -9   54.33    4.15
  -7   5   9   49.97    4.34
   7  -5  -9   48.95    4.09
  -2  -5   9   66.81    4.73
   2  -7   9   66.64    4.54
  -2  -5  12    1.43    0.66
  -7   2 -12    0.72    0.27
   2  -7  12    0.60    0.44
  -7   5  12    0.19    0.34
   2   5 -12    0.47    0.30
   7  -5 -12    0.74    0.41
  -2   7 -12    1.01    0.41
  -2  -5  15    8.74    1.44
   2  -7  15    7.57    1.17
  -2   7 -15    6.89    0.97
   2   5 -15    7.60    1.13
   7  -6  13    3.66    0.85
   7  -1 -13    3.01    0.76
   6  -7  13    4.99    0.97
  -6   7 -13    4.15    0.68
   6   1 -13    4.27    0.91
  -7   6 -13    4.68    0.70
  -7   1  13    4.01    1.03
  -6  -1  13    3.83    1.13
  -6   7 -10   11.40    1.21
   6  -7  10   11.95    1.52
   7  -6  10   10.24    1.35
   7  -1 -10   12.48    1.49
  -7   1  10    8.34    1.42
  -7   6 -10    9.88    1.09
  -6  -1   7   20.00    1.94
  -7   1   7   20.03    1.96
   6  -7   7   21.13    1.79
  -6   7  -7   18.55    1.31
   7  -1  -7   19.24    1.65
   6   1  -7   17.70    1.59
   7  -6   4  675.27   39.66
  -1  -6  -4  545.28   39.07
   7  -1  -4  663.21   39.84
  -6  -1   4  721.44   40.18
   1   6   4  523.07   38.99
   6  -7   4  658.99   39.76
  -7   6  -4  734.39   39.41
   1  -7  -4  667.08   39.20
   6   1  -4  643.67   39.72
  -7   1   4  708.27   40.10
  -6   7  -4  668.96   39.37
  -1   7   4  701.16   39.05
   1  -7  -1  273.86   20.49
   6  -7   1  335.74   20.65
   6   1  -1  321.29   20.67
  -6  -1   1  303.19   20.77
  -7   1   1  313.60   20.78
   1   6   1  343.76   20.45
  -6   7  -1  321.33   20.32
  -7   6  -1  331.04   20.26
   7  -1  -1  298.65   20.68
   7  -6   1  346.64   20.54
  -1   7   1  350.87   20.42
  -1  -6  -1  268.59   20.58
  -6   7   2  341.07   20.63
  -1  -6   2  295.23   21.21
   1   6  -2  338.13   20.97
   7  -6  -2  315.20   20.87
   6   1   2  335.55   20.98
   6  -7  -2  324.81   20.83
   1  -7   2  312.40   21.17
  -7   6   2  335.49   20.78
  -1   7  -2  345.55   20.97
   7  -1   2  304.37   20.97
  -6  -1  -2  312.58   20.96
   7  -1   5   38.31    2.80
   7  -6  -5   36.74    3.18
  -6   7   5   38.59    3.07
  -7   6   5   37.64    3.14
   6  -7  -5   34.29    3.07
  -6  -1  -5   40.91    2.86
  -7   1  -5   34.73    2.68
   6   1   5   42.10    2.93
   6   1   8   97.44    6.36
  -6  -1  -8  102.13    6.28
   6  -7  -8   81.10    6.69
  -7   1  -8   94.66    6.25
  -1   7  -8   87.36    6.69
   7  -1   8   96.87    6.45
   1   6  -8   88.41    6.71
  -1  -6   8  112.88    7.46
  -6   7   8   82.64    6.79
   1  -7   8  112.53    7.39
  -6  -1 -11   22.09    1.57
   1   6 -11   17.38    1.95
   7  -6 -11   14.75    1.90
  -7   6  11   18.23    2.29
  -7   1 -11   21.16    1.63
  -1   7 -11   22.53    2.07
   7  -1  11   21.69    1.87
   6   1  11   20.48    1.61
   1  -7  11   21.54    2.29
  -1  -6  11   24.38    2.57
  -6   7  11   16.75    2.13
   6  -7 -11   14.15    1.83
   1   6 -14    1.51    0.52
  -1   7 -14    1.75    0.56
   1  -7  14    1.90    0.62
  -1  -6  14    2.53    0.81
   7   0 -14   27.92    2.78
  -7   0  14   28.44    3.23
   7   0 -11    0.08    0.30
  -7   0  11   -0.11    0.35
   7  -7  11   -0.07    0.30
  -7   7 -11    0.04    0.17
   7   0  -8  382.04   25.28
   7  -7   8  400.90   25.28
  -7   0   8  424.99   25.84
  -7   7  -8  378.25   24.83
   0  -7  -5    0.08    0.07
   0   7   5    0.18    0.07
   7   0  -5   -0.07    0.28
  -7   0   5    0.27    0.39
  -7   7  -2 2512.84  159.48
   7   0  -2 2601.06  159.99
   7  -7   2 2600.49  159.79
  -7   0   2 2575.35  160.14
  -7   7   1    0.16    0.12
  -7   0  -1   -0.06    0.21
   0  -7   1   -0.07    0.22
   7   0   1   -0.06    0.22
   0   7  -1    0.05    0.15
   7  -7  -1    0.18    0.16
   7   0   4 1361.83   81.93
  -7   7   4 1271.46   81.79
   0  -7   4 1408.89   82.53
   0   7  -4 1254.59   81.91
  -7   0  -4 1337.46   81.84
   7  -7  -4 1248.81   82.03
   7  -7  -7   -0.14    0.27
   0   7  -7    0.06    0.20
  -7   0  -7    0.15    0.15
   0  -7   7    0.29    0.39
   7   0   7   -0.07    0.21
  -7   7   7    0.08    0.27
   7   0  10  309.26   18.59
   0   7 -10  270.62   18.97
  -7   0 -10  329.16   18.43
   7  -7 -10  226.03   18.84
  -7   7  10  225.57   19.09
   0   7 -13    0.13    0.29
   0  -7  13    0.09    0.33
   4  -8   0    4.59    0.81
  -4   8   0    6.73    0.75
  -4  -4   0    3.88    0.78
   4   4   0    6.28    0.85
  -8   4   0    6.20    0.77
   8  -4   0    5.68    0.84
  -4  -4  -3   98.57    7.34
  -4   8   3  113.18    7.14
   4  -8   3  112.25    7.75
   8  -4  -3  107.73    7.76
   8  -4   3  103.41    7.35
  -4   8  -3  120.55    7.54
  -4  -4   3   97.07    7.75
   4   4  -3  115.68    7.67
  -8   4  -3  106.61    7.16
  -8   4   3  103.79    7.61
   4   4   3  121.02    7.31
  -4   8  -6    2.15    0.46
  -4  -4   6    2.70    0.75
   4  -8   6    1.22    0.46
  -8   4  -6    2.39    0.40
  -8   4   6    1.96    0.64
   8  -4   6    1.66    0.43
   4  -8  -6    1.62    0.45
   4   4  -6    2.00    0.55
  -4   8   6    2.08    0.45
   8  -4  -6    2.46    0.65
  -4   8   9   11.62    1.39
  -8   4   9   13.62    1.83
   8  -4  -9   14.45    1.68
   4  -8  -9   12.26    1.31
   4   4  -9   16.52    1.78
  -4  -4  12    2.90    0.88
   8  -4 -12    2.23    0.65
  -8   4  12    1.96    0.70
  -8   4 -12    2.48    0.46
   4   4 -12    1.90    0.57
   4  -8  12    3.14    0.74
   8  -4  12    2.49    0.62
  -4   8 -12    2.71    0.58
   4  -8  15    5.65    0.97
   4   4 -15    5.36    0.93
  -4  -4  15    5.61    1.17
  -4   8 -15    3.91    0.77
  -5  -3  13    2.59    0.88
   8  -3 -13    2.76    0.74
   5   3 -13    1.56    0.56
   5  -8  13    1.70    0.62
  -5   8 -13    1.99    0.51
  -8   3  13    1.58    0.66
  -8   5 -10    9.77    1.05
   8  -3 -10    7.45    1.21
   8  -5  10    9.60    1.26
   5   3 -10    9.79    1.33
  -8   3  10   10.76    1.65
  -5  -3   7  131.15    8.58
  -5   8  -7  128.15    7.96
   5  -8   7  131.42    8.24
   8  -3  -7  103.33    8.03
   8  -5   7  114.95    7.91
  -8   5  -7  101.36    7.51
   5   3  -7  113.86    8.08
  -8   3   7  121.85    8.44
  -8   5  -4  238.35   14.35
   3   5   4  209.55   14.17
   5  -8   4  281.89   15.19
  -5  -3   4  215.14   14.97
  -8   3   4  252.64   15.14
   3  -8  -4  234.77   14.40
   5   3  -4  229.47   14.81
  -3   8   4  254.68   14.23
   8  -3  -4  237.42   14.98
   8  -5   4  237.41   14.63
  -5   8  -4  246.04   14.58
   8  -5   1   14.13    1.39
   5   3  -1   14.15    1.50
  -3   8   1   15.25    1.32
  -5   8  -1   14.56    1.35
   8  -3  -1   19.12    1.79
  -8   5  -1   14.86    1.26
   3  -8  -1   12.51    1.45
  -3  -5  -1   12.45    1.54
   5  -8   1   13.20    1.53
  -5  -3   1   13.91    1.70
  -8   3  -2   14.05    1.26
  -5  -3  -2   11.89    1.39
  -3   8  -2   14.68    1.38
   5  -8  -2   11.37    1.28
   3   5  -2   15.55    1.50
   3  -8   2   11.93    1.46
  -5   8   2   15.00    1.20
   8  -5  -2   13.68    1.55
  -3  -5   2   11.10    1.54
   8  -3   2   11.41    1.29
  -8   5   2   14.02    1.38
   8  -3   5  328.14   19.99
  -3   8  -5  310.80   20.06
  -8   3  -5  301.51   19.72
  -8   5   5  325.92   20.48
  -5  -3  -5  278.62   19.78
   3   5  -5  325.77   20.32
   5   3   5  313.22   19.70
   5  -8  -5  292.68   20.04
   3  -8   5  346.23   20.47
  -5   8   5  320.47   19.91
  -3  -5   5  364.30   20.96
   5  -8  -8    0.06    0.24
   8  -3   8    0.24    0.26
  -3   8  -8    0.16    0.20
   3   5  -8    0.15    0.32
   3  -8   8    0.23    0.29
  -8   5   8    0.27    0.27
  -8   3  -8    0.09    0.16
  -5   8   8    0.06    0.25
   8  -5  -8    0.23    0.30
  -3  -5   8    0.22    0.36
  -3   8 -11    0.11    0.21
  -5   8  11    0.07    0.26
  -8   5  11    0.11    0.37
   3  -8  11    0.25    0.32
   5  -8 -11    0.21    0.27
   8  -5 -11   -0.08    0.27
   3   5 -11   -0.07    0.26
  -3  -5  11    0.11    0.28
  -3   8 -14    2.62    0.60
  -3  -5  14    2.74    0.86
   3   5 -14    3.35    0.75
   3  -8  14    3.19    0.73
  -8   2  14    6.28    1.39
   6   2 -14    8.55    1.31
  -6  -2  14    8.09    1.57
   8  -2 -14    7.64    1.23
  -8   2  11   59.16    5.43
  -8   6 -11   65.74    4.82
  -6   8 -11   66.12    4.90
   6  -8  11   82.38    5.61
   8  -2 -11   64.40    5.22
   8  -6  11   73.29    5.28
   6   2 -11   66.41    5.22
  -6  -2  11   72.66    5.76
   8  -6   8    4.84    0.81
  -8   2   8    3.31    0.88
  -6  -2   8    4.74    0.97
  -8   6  -8    4.16    0.60
  -2   8   8    2.12    0.37
   2  -8  -8    1.89    0.33
   6   2  -8    4.08    0.82
   8  -2  -8    3.18    0.71
  -8   2   5  215.49   13.49
  -8   6  -5  180.91   12.57
   6   2  -5  195.85   13.09
  -6   8  -5  195.36   12.75
  -2   8   5  203.87   12.46
   8  -2  -5  194.88   13.18
   6  -8   5  226.34   13.28
  -6  -2   5  215.24   13.58
   8  -6   5  199.49   12.94
   2  -8  -5  179.76   12.50
   6   2  -2    4.66    0.81
   8  -6   2    5.32    0.76
  -6   8  -2    5.11    0.69
  -8   6  -2    4.44    0.60
   6  -8   2    7.15    0.99
  -6  -2   2    5.93    1.02
   8  -2  -2    6.50    0.99
  -2   8   2    4.90    0.62
  -8   2   2    7.32    1.07
   6   2   1  733.04   46.41
   2   6  -1  816.74   46.52
  -2   8  -1  725.42   46.25
   8  -2   1  752.01   46.60
  -8   6   1  712.93   46.17
  -6  -2  -1  677.13   46.51
   8  -6  -1  778.41   46.37
   2  -8   1  639.98   46.42
  -8   2  -1  763.16   46.49
  -2  -6   1  695.25   46.80
   6  -8  -1  697.56   46.33
  -6   8   1  800.19   46.14
  -8   2  -4   65.55    4.71
  -8   6   4   67.71    5.12
  -6   8   4   74.23    4.83
   8  -2   4   63.92    4.81
   8  -6  -4   64.00    5.18
   6   2   4   78.75    4.98
   2  -8   7  227.32   12.99
   2   6  -7  185.12   12.56
  -8   2  -7  184.12   11.97
  -8   6   7  189.90   12.85
   8  -6  -7  189.74   12.74
   6   2   7  177.91   12.01
   6  -8  -7  177.57   12.48
  -2  -6   7  236.79   13.38
  -6  -2  -7  174.35   12.07
  -2   8  -7  187.18   12.44
  -6   8   7  188.32   12.55
   8  -2   7  193.12   12.23
  -8   2 -10   15.41    1.35
   2  -8  10   23.90    2.29
  -6   8  10   13.44    1.75
   8  -2  10   18.92    1.66
   2   6 -10   15.88    1.73
  -2  -6  10   21.94    2.33
  -8   6  10   14.42    1.93
   6  -8 -10   12.15    1.57
   8  -6 -10   12.46    1.68
   8  -6 -13   24.90    2.69
   2  -8  13   34.35    2.98
   2   6 -13   27.66    2.65
  -2   8 -13   27.77    2.51
  -8   6  13   23.72    2.84
   2   6 -16    2.59    0.58
   8  -1 -15    2.91    0.77
   8  -7  12    2.46    0.71
  -8   7 -12    2.30    0.50
  -8   1  12    2.59    0.78
  -7   8 -12    2.66    0.54
  -7  -1  12    2.12    0.78
   8  -1 -12    2.50    0.73
   7  -8  12    2.35    0.64
   7   1 -12    2.55    0.69
   7  -8   9   30.10    2.70
  -7   8  -9   25.44    2.25
  -8   7  -9   27.39    2.27
   8  -7   9   30.61    2.71
  -7   8  -6   29.00    2.25
  -7  -1   6   38.56    3.22
   8  -7   6   33.19    2.62
  -8   7  -6   37.51    2.43
  -1   8   6   24.98    1.96
   1  -8  -6   20.65    1.94
   8  -1  -6   28.73    2.61
   7   1  -6   33.71    2.72
   7  -8   6   31.67    2.63
  -8   1   6   33.53    2.99
   7  -8   3   82.16    6.00
  -1  -7  -3   67.11    5.66
  -7   8  -3   91.58    5.76
  -7  -1   3   83.81    6.29
   1   7   3   93.30    5.62
  -8   1   3   84.80    6.28
   7   1  -3   80.72    6.01
   8  -7   3   78.30    5.84
   8  -1  -3   87.13    6.19
  -8   7  -3   80.25    5.60
  -8   1   0   14.82    1.68
   1  -8   0   10.87    1.47
  -1   8   0   14.96    1.45
   7  -8   0   13.87    1.50
   8  -7   0   16.84    1.56
  -1  -7   0   15.03    1.78
   1   7   0   18.88    1.62
   7   1   0   15.98    1.68
  -7   8   0   18.27    1.43
  -7  -1   0   13.60    1.67
   8  -1   0   16.13    1.68
  -8   7   0   15.84    1.34
  -8   7   3   51.14    3.68
  -1   8  -3   51.02    3.78
  -1  -7   3   49.28    4.17
  -7  -1  -3   47.23    3.78
   1  -8   3   46.44    3.98
   7   1   3   53.38    3.84
   8  -7  -3   47.98    3.84
   1   7  -3   50.26    3.78
   8  -1   3   49.01    3.82
   7  -8  -3   44.62    3.61
  -7   8   3   49.14    3.53
   1   7  -6   48.30    4.01
  -1   8  -6   52.54    4.07
  -8   1  -6   49.63    3.72
   1  -8   6   62.17    4.62
  -7   8   6   53.82    4.10
  -1  -7   6   64.77    4.74
   7  -8  -6   49.77    4.16
   8  -1   6   52.63    3.85
   7   1   9   41.74    3.35
   8  -1   9   49.81    3.42
   7  -8  -9   37.40    3.62
  -8   1  -9   49.45    3.23
  -8   7   9   43.66    3.95
   8  -7  -9   38.52    3.71
   1   7  -9   40.89    3.61
  -1  -7   9   52.19    4.30
   1  -8  12    4.17    0.96
   7  -8 -12    3.57    0.79
   1   7 -12    4.95    0.87
  -8   7  12    3.26    0.93
  -7   8  12    2.79    0.79
  -1   8 -12    3.78    0.77
   8  -7 -12    4.26    0.87
  -1  -7  12    5.62    1.14
  -1   8 -15    0.60    0.33
  -1  -7  15    0.86    0.38
   1   7 -15    1.67    0.53
   8  -8  13   -0.08    0.28
   8   0 -13   -0.41    0.39
  -8   0  13    0.24    0.35
  -8   8 -13    0.05    0.22
  -8   0  10   -0.11    0.37
   8   0 -10    0.41    0.33
   8   0  -7   -0.08    0.28
  -8   0   7    0.11    0.29
   8   0  -4   29.61    2.79
   8  -8   4   25.84    2.60
   0   8   4   38.02    2.33
  -8   0   4   27.86    2.92
  -8   8  -4   28.86    2.42
   0  -8  -4   28.81    2.40
   0  -8  -1    0.06    0.22
   8   0  -1   -0.07    0.24
   0   8   1    0.25    0.21
  -8   8  -1    0.14    0.15
   8  -8   1    0.33    0.23
  -8   0   1    0.08    0.21
   0  -8   2  276.58   19.68
   8   0   2  285.84   19.39
  -8   8   2  297.13   18.98
   0   8  -2  338.26   19.45
   8  -8  -2  293.40   19.20
  -8   8   5    0.07    0.22
   0  -8   5    0.31    0.36
   8   0   5    0.67    0.35
   0   8  -5   -0.06    0.23
  -8   0  -5    0.42    0.30
  -8   8   8    9.73    1.48
  -8   0  -8   12.09    1.18
   8  -8  -8   11.29    1.52
   0   8  -8    9.34    1.35
   8   0   8   13.21    1.36
   0  -8   8   14.94    1.87
   0   8 -11   -0.13    0.28
   0  -8  11    0.32    0.35
   8  -8 -11    0.23    0.28
  -8   8  11   -0.10    0.30
   0  -8  14    0.10    0.13
   0   8 -14    0.20    0.29
  -9   4  14    2.20    0.69
  -5   9 -14    1.69    0.49
   5   4 -14    1.11    0.52
   5  -9  14    2.34    0.73
   9  -4 -14    1.68    0.64
  -5  -4  14    0.34    0.49
   5   4 -11   31.46    2.99
   9  -4 -11   26.05    2.86
  -9   5 -11   32.10    2.52
   5  -9  11   34.18    3.05
  -9   4  11   29.59    3.31
  -5   9 -11   35.69    2.83
  -5  -4  11   39.17    3.63
   9  -5  11   31.89    2.81
   5  -9   8   -0.08    0.28
   4  -9  -8    0.14    0.23
  -9   4   8    0.50    0.42
  -5   9  -8    0.21    0.21
   9  -4  -8    0.33    0.36
   9  -5   8    0.53    0.29
  -4   9   8    0.46    0.26
   5   4  -8   -0.07    0.32
  -5  -4   8    0.85    0.46
  -9   5  -8    0.44    0.21
  -9   4   5  310.55   18.42
  -5  -4   5  288.79   18.40
  -4   9   5  285.83   17.45
   9  -5   5  263.07   17.68
  -9   5  -5  240.72   17.39
   9  -4  -5  272.71   18.14
   5  -9   5  304.72   18.19
   4  -9  -5  261.42   17.54
   5   4  -5  287.59   18.06
  -5   9  -5  296.96   17.79
  -9   4   2  139.54    9.53
  -9   5  -2  142.22    9.04
   4   5   2  145.52    9.25
   5   4  -2  143.32    9.48
   9  -4  -2  148.59    9.72
   4  -9  -2  124.71    9.29
  -5  -4   2  124.64    9.59
  -5   9  -2  151.58    9.24
   5  -9   2  134.02    9.53
  -4  -5  -2  117.74    9.37
   9  -5   2  140.55    9.24
  -5   9   1  180.75   11.13
   4  -9   1  177.19   11.62
   4   5  -1  184.09   11.50
  -9   5   1  170.58   11.34
   5   4   1  172.75   11.35
  -4  -5   1  156.56   11.68
  -4   9  -1  174.85   11.22
  -9   4  -1  173.98   11.27
  -5  -4  -1  143.54   11.43
   9  -5  -1  166.64   11.51
   5  -9  -1  163.41   11.39
   9  -4   1  175.97   11.45
  -5  -4  -4   22.42    2.14
   9  -5  -4   24.49    2.54
  -4   9  -4   28.53    2.33
   4  -9   4   23.70    2.43
  -5   9   4   27.99    2.02
   4   5  -4   27.36    2.45
  -9   5   4   25.10    2.49
   5   4   4   31.95    2.20
   5  -9  -4   23.92    2.13
  -4  -5   4   27.05    2.74
  -9   4  -7  177.63   11.85
  -4   9  -7  169.75   12.10
   9  -4   7  191.71   12.17
  -4  -5   7  231.97   13.36
   4  -9   7  190.18   12.50
   5  -9  -7  174.14   12.24
  -5   9   7  186.51   12.21
   9  -5  -7  185.06   12.60
   4   5  -7  193.83   12.52
   4   5 -10   -0.16    0.37
  -9   5  10    0.11    0.28
   5  -9 -10    0.10    0.22
  -4   9 -10    0.37    0.25
  -4  -5  10    0.23    0.39
  -9   4 -10    0.18    0.17
   4  -9  10    0.54    0.38
   9  -4  10    0.34    0.28
   9  -5 -10    0.08    0.30
  -5   9  10    0.33    0.31
   4   5 -13    8.98    1.28
  -9   5  13    6.84    1.36
   4  -9  13   11.41    1.49
   9  -5 -13    7.86    1.33
  -4   9 -13   10.01    1.20
  -4  -5  13   11.60    1.76
   4   5 -16    2.79    0.64
  -4  -5  16    3.00    0.80
  -6  -3  15    0.35    0.27
   6   3 -15    0.69    0.30
  -9   6 -12   19.08    1.72
   9  -3 -12   14.72    1.97
  -9   3  12   16.31    2.22
   6  -9  12   22.99    2.33
   9  -6  12   22.71    2.15
  -6   9 -12   19.12    1.82
   9  -6   9    6.89    1.00
   9  -3  -9    5.75    1.01
  -3   9   9    3.85    0.63
   6   3  -9    6.45    1.01
   3  -9  -9    4.30    0.59
  -6  -3   9    5.95    1.22
  -9   6  -9    6.66    0.76
  -9   3   9    6.56    1.27
   9  -6   6  126.40    9.52
  -6  -3   6  148.45   10.21
   6  -9   6  173.80   10.16
  -9   3   6  160.16   10.30
  -3   9   6  138.70    9.28
   6   3  -6  157.09   10.04
  -6   9  -6  143.30    9.49
   3  -9  -6  133.08    9.41
   9  -3  -6  139.81    9.94
  -9   6  -6  142.48    9.34
  -3   9   3   17.54    1.40
  -9   6  -3   15.72    1.39
  -3  -6  -3   14.63    1.63
   9  -6   3   17.95    1.65
   3  -9  -3   14.47    1.53
   3   6   3   18.57    1.51
   9  -6   0  743.29   46.71
   6  -9   0  710.17   46.83
  -9   3   0  750.94   46.96
  -6   9   0  787.62   46.56
  -9   6   0  690.39   46.53
  -6  -3   0  682.47   47.04
   6   3   0  741.53   46.83
  -3   9   0  775.79   46.63
   3  -9   0  727.03   47.02
   3   6   0  796.79   46.90
   9  -3   0  726.73   47.05
  -3  -6   0  740.82   47.35
   6  -9  -3   82.07    6.14
  -3  -6   3   96.91    6.99
  -6  -3  -3   86.87    6.35
   3   6  -3   94.40    6.51
   6   3   3   97.06    6.23
   9  -3   3   86.40    6.21
  -9   3  -3   88.13    6.10
  -9   6   6  168.27   10.84
  -9   3  -6  158.76    9.94
   3   6  -6  169.04   10.66
   6   3   6  148.35    9.87
  -6  -3  -6  132.17    9.98
  -3   9  -6  148.58   10.25
   9  -6  -6  152.03   10.65
   6  -9  -6  142.43   10.43
  -6   9   6  160.75   10.41
   3  -9   6  166.82   10.69
  -3  -6   6  182.76   11.29
   9  -3   6  153.67   10.15
   3  -9   9    2.00    0.61
  -9   6   9    1.90    0.66
   9  -6  -9    0.99    0.50
   9  -3   9    2.10    0.51
  -3   9  -9    2.17    0.51
   3   6  -9    2.45    0.62
  -6   9   9    1.17    0.49
  -9   3  -9    1.84    0.37
  -3  -6   9    1.81    0.71
   6  -9  -9    1.17    0.48
  -9   6  12   13.12    1.98
   3  -9  12   17.00    1.89
   9  -6 -12   14.23    1.80
  -3   9 -12   15.12    1.56
  -3   9 -15    0.75    0.38
   3   6 -15    0.97    0.46
  -3  -6  15    1.60    0.57
   3  -9  15    1.36    0.45
  -9   7 -13    5.14    0.79
  -7  -2  13    5.55    1.33
   7   2 -13    5.97    1.08
   9  -2 -13    4.61    1.00
  -9   2  13    4.56    1.16
  -7  -2  10   21.70    2.58
  -7   9 -10   21.74    1.94
   7  -9  10   21.43    2.27
   9  -7  10   23.05    2.24
   7   2 -10   22.83    2.31
   9  -2 -10   21.43    2.30
  -9   2  10   20.49    2.52
  -9   7 -10   21.62    1.91
   7  -9   7   20.97    2.08
  -7  -2   7   19.78    2.21
   9  -7   7   21.73    1.99
  -2   9   7   15.52    1.47
  -7   9  -7   21.93    1.79
  -9   7  -7   19.16    1.64
   7   2  -7   22.78    2.14
   9  -2  -7   22.12    2.14
  -9   2   7   20.61    2.33
   2  -9  -7   14.59    1.46
  -2   9   4   54.32    3.13
   7  -9   4   42.03    3.59
  -2  -7  -4   29.13    3.08
   2   7   4   45.85    3.07
   2  -9  -4   37.98    3.17
  -9   2   4   46.04    3.89
   7   2  -4   42.00    3.56
   9  -2  -4   43.00    3.71
  -9   7  -4   42.99    3.17
  -7   9  -4   44.85    3.29
  -7  -2   4   49.33    4.09
  -9   2   1   94.60    6.83
   9  -7   1   93.31    6.51
  -2   9   1  110.16    6.49
  -9   7  -1   91.12    6.22
  -7   9  -1   93.77    6.30
   7  -9   1   94.94    6.66
   7   2  -1   87.73    6.62
  -7  -2   1   90.95    6.89
   2   7   1   99.43    6.50
   9  -2  -1   81.41    6.65
  -2  -7  -1   81.92    6.73
   7  -9  -2  528.37   33.96
   2  -9   2  465.48   34.12
   7   2   2  555.78   34.15
  -2   9  -2  538.80   33.95
  -9   2  -2  555.44   34.16
   2   7  -2  569.35   34.15
  -7  -2  -2  494.33   34.17
  -7   9   2  567.71   33.72
  -9   7   2  553.57   33.94
  -2  -7   2  474.74   34.37
   9  -2   2  534.66   34.26
   2   7  -5   33.93    2.87
  -7   9   5   35.39    2.71
  -9   7   5   32.72    2.94
   2  -9   5   38.56    3.26
   9  -7  -5   28.72    2.94
  -2  -7   5   37.94    3.38
   7  -9  -5   25.83    2.71
  -9   2  -5   31.12    2.56
   9  -2   5   35.12    2.77
  -2   9  -5   32.57    2.77
  -9   7   8   12.92    1.78
  -7  -2  -8   12.36    1.27
  -9   2  -8   14.82    1.25
   9  -2   8   15.19    1.42
   7   2   8   13.08    1.24
   9  -7  -8   13.53    1.75
  -7   9   8   12.82    1.65
   7  -9 -11    9.42    1.33
  -2   9 -11   10.61    1.32
   2  -9  11   12.34    1.63
  -7   9  11    9.50    1.48
  -9   2 -11   12.36    1.13
  -9   7  11    9.50    1.60
   2  -9  14    0.58    0.33
  -2  -7  14    0.44    0.36
  -2   9 -14   -0.11    0.26
   2   7 -14    0.14    0.25
  -8   9 -14    3.18    0.61
   8   1 -14    3.72    0.88
   9  -1 -14    2.63    0.75
  -9   1  14    2.95    0.98
  -8  -1  14    4.60    1.17
  -8  -1  11   58.33    5.00
   8   1 -11   55.53    4.57
   8  -9  11   54.96    4.47
  -8   9 -11   54.11    4.07
   9  -1 -11   61.26    4.66
  -9   8 -11   53.55    4.07
   9  -8  11   60.39    4.55
  -9   1  11   56.67    4.91
   8  -9   8   24.53    2.50
  -8   9  -8   24.81    2.17
   9  -8   8   27.41    2.53
  -9   8  -8   28.75    2.28
   1  -9  -5  425.74   23.99
  -8   9  -5  387.85   24.17
   8  -9   5  442.38   24.75
   8   1  -5  404.26   24.68
  -1  -8  -5  330.29   23.79
  -9   1   5  427.23   25.12
  -9   8  -5  385.02   24.08
   9  -1  -5  394.26   24.73
   9  -8   5  406.89   24.58
  -8  -1   5  452.82   25.30
  -1   9   5  465.59   23.84
   1   8   5  322.67   23.69
   8  -9   2   21.47    2.23
  -1   9   2   32.13    2.22
  -9   8  -2   25.73    2.02
   9  -8   2   21.49    2.19
   1   8   2   26.99    2.15
  -1  -8  -2   15.89    2.08
   1  -9  -2   23.47    2.32
  -8   9  -2   28.15    2.08
   9  -1   1  539.72   36.14
  -1   9  -1  624.56   35.95
  -8   9   1  588.97   35.62
  -9   1  -1  514.73   36.05
   8  -9  -1  581.09   35.93
   1   8  -1  601.00   36.01
   1  -9   1  492.60   36.09
  -1  -8   1  544.23   36.45
  -8  -1  -1  552.48   36.24
  -8  -1  -4    0.33    0.32
  -9   8   4    0.96    0.39
   1  -9   4    1.38    0.55
  -9   1  -4    0.54    0.36
   8   1   4    0.90    0.43
  -1   9  -4    0.92    0.37
   9  -8  -4    1.00    0.41
  -1  -8   4    1.63    0.66
   9  -1   4    1.32    0.50
   1   8  -4    0.63    0.33
  -1  -8   7  297.07   17.38
  -1   9  -7  240.93   16.48
   1   8  -7  236.74   16.49
   1  -9   7  302.07   17.29
   9  -8  -7  228.47   16.72
   8  -9  -7  225.76   16.64
   8   1   7  298.31   16.56
  -9   1  -7  255.72   16.24
   9  -1   7  256.16   16.41
  -8  -1  -7  246.10   16.32
  -9   8   7  229.04   16.77
  -8   9   7  229.44   16.60
  -8   9  10   10.41    1.58
  -9   1 -10   12.59    1.24
  -8  -1 -10   11.33    1.21
  -1   9 -10   11.63    1.44
   9  -8 -10    9.93    1.49
   1   8 -10   10.24    1.38
  -9   8  10    8.94    1.55
   8  -9 -10   10.00    1.44
  -1  -8  10   16.19    2.02
   9  -1  10   12.63    1.37
   1  -9  10   14.13    1.76
   1  -9  13   42.46    3.57
   1   8 -13   31.77    2.97
  -1  -8  13   42.88    3.72
  -1   9 -13   30.30    2.85
   1   8 -16    2.21    0.59
  -1  -8  16    3.60    0.88
  -1   9 -16    2.25    0.53
   9   0 -15    0.54    0.29
  -9   0  15    0.69    0.41
  -9   9 -12   25.63    2.21
  -9   0  12   29.22    3.06
   9  -9  12   25.54    2.61
   9   0 -12   27.49    2.69
  -9   0   9    0.22    0.41
   9   0  -9   -0.16    0.31
  -9   9  -6   30.11    1.96
   9   0  -6   25.94    2.25
   9  -9   6   27.42    2.22
  -9   0   6   27.88    2.62
   0  -9  -6   12.89    1.26
   0   9   6   17.88    1.26
  -9   0   3   -0.10    0.36
   9  -9   3    0.06    0.24
   0   9   3    0.04    0.16
  -9   9  -3    0.04    0.14
   0  -9  -3   -0.13    0.28
   9   0  -3   -0.08    0.23
   0   9   0 1501.73   86.56
   9  -9   0 1369.90   86.51
   9   0   0 1398.50   86.86
  -9   0   0 1307.01   86.91
  -9   9   0 1338.85   86.19
   9  -9  -3    0.06    0.20
   0  -9   3    0.10    0.29
  -9   0  -3    0.07    0.25
   0   9  -3    0.13    0.21
  -9   9   3    0.09    0.19
   9   0   3   -0.07    0.26
   9  -9  -6   29.34    2.91
  -9   9   6   27.32    2.73
  -9   0  -6   29.83    2.63
   9   0   6   31.13    2.78
   0   9  -6   31.84    2.77
   0  -9   6   32.30    3.17
   9  -9  -9   -0.18    0.42
   9   0   9    0.07    0.30
   0  -9   9    0.11    0.35
  -9   9   9   -0.10    0.29
  -9   0  -9    0.35    0.31
   0   9  -9   -0.14    0.26
   0  -9  12   27.12    2.56
   0   9 -12   23.08    2.13
   0  -9  15    0.55    0.30
   0   9 -15    0.51    0.24
   5 -10   0   58.75    5.05
   5   5   0   69.20    5.07
  -5  10   0   71.44    4.79
  -5  -5  -3   23.85    2.50
  -5  -5   3   27.90    2.86
   5 -10  -3   28.67    2.42
  -5  10  -3   28.93    2.39
 -10   5   3   30.21    2.70
   5 -10   3   29.87    2.77
   5   5   3   30.66    2.41
   5   5  -3   29.27    2.63
  10  -5  -3   22.25    2.62
  10  -5   3   25.94    2.34
  -5  10   3   31.65    2.24
   5 -10   6   87.18    5.92
   5 -10  -6   66.11    5.43
 -10   5   6   76.47    6.05
   5   5  -6   80.16    5.75
  10  -5  -6   74.68    5.88
 -10   5  -6   72.78    5.16
  -5  10  -6   84.59    5.61
  -5  10   6   73.63    5.31
  -5  -5   6   79.79    6.15
   5 -10  -9    2.84    0.63
 -10   5  -9    3.83    0.55
  -5  10  -9    2.81    0.60
  -5  -5   9    3.65    1.02
  10  -5   9    2.68    0.61
  -5  10   9    2.41    0.60
   5   5  -9    3.22    0.78
   5 -10   9    3.70    0.81
 -10   5  12    0.49    0.46
   5   5 -12    0.56    0.41
  -5  -5  12    0.97    0.64
  10  -5 -12    0.87    0.52
   5 -10  15    2.98    0.72
  -5  10 -15    2.88    0.62
   5   5 -15    2.98    0.69
  -5  -5  15    2.73    0.77
   6   4 -16    4.08    0.80
   6 -10  13    0.88    0.45
  -6  10 -13    0.97    0.42
  -6  -4  13    1.66    0.71
   6   4 -13    1.17    0.50
  10  -4 -13    0.72    0.48
 -10   4  13    0.93    0.49
 -10   6 -10   37.77    2.86
   6   4 -10   40.34    3.40
  10  -6  10   35.54    3.07
   6 -10  10   50.17    3.69
 -10   4  10   37.47    3.73
   4 -10 -10   25.81    2.65
  -6  10 -10   42.65    3.11
  10  -4 -10   37.57    3.35
  -6  -4  10   47.42    4.04
  -6  -4   7    0.22    0.38
 -10   6  -7    0.24    0.16
  -6  10  -7    0.05    0.17
 -10   4   7    1.33    0.56
   6 -10   7    0.35    0.34
  10  -6   7    0.58    0.33
  -4  10   7    0.18    0.20
   6   4  -7    0.08    0.27
   4 -10  -7    0.11    0.26
  10  -4  -7    0.35    0.34
   6   4  -4  468.31   30.13
  10  -6   4  457.18   29.80
 -10   6  -4  447.12   29.51
   4 -10  -4  460.38   29.72
  -4  10   4  502.57   29.50
  -6  10  -4  450.82   29.73
   6 -10   4  493.80   30.21
   4   6   4  532.87   29.63
  -6  -4   4  438.33   30.37
 -10   4   4  486.29   30.44
  -4  -6  -4  405.80   29.77
  10  -4  -4  435.08   30.22
   6   4  -1  121.44    8.34
   4   6   1  131.46    8.35
   4 -10  -1  121.38    8.44
  -6  -4   1  109.69    8.54
  -4  -6  -1  108.07    8.54
  -6  -4  -2  650.05   43.11
   6 -10  -2  645.92   42.82
   6   4   2  761.98   42.95
  10  -6  -2  708.40   43.22
   4   6  -2  725.87   43.06
 -10   4  -2  663.66   42.73
  10  -4   2  679.18   42.93
  -4  -6   2  643.33   43.37
 -10   6   2  628.30   42.81
   4 -10   5    0.47    0.36
  10  -4   5    0.24    0.21
 -10   4  -5    0.09    0.14
   6 -10  -5    0.27    0.25
  -6  -4  -5   -0.05    0.21
  -4  10  -5    0.21    0.19
  -6  10   5    0.42    0.24
  10  -6  -5    0.17    0.30
   4   6  -5    0.22    0.28
   6   4   5    0.23    0.18
 -10   6   5    0.09    0.25
  -4  -6   5    0.45    0.49
  -6  10   8   81.43    6.15
   6 -10  -8   78.31    6.11
  10  -6  -8   82.29    6.41
   4   6  -8   88.49    6.35
 -10   6   8   80.29    6.53
  -4  -6   8   99.40    7.08
   4 -10  11   11.05    1.49
  -4  10 -11    9.88    1.18
  10  -4  11    9.81    1.23
 -10   4 -11   10.55    1.06
  10  -6 -11    6.98    1.26
 -10   6  11    7.42    1.47
  -4  10 -14    9.14    1.19
   4   6 -14    8.91    1.29
   4 -10  14   12.20    1.54
  -4  -6  14   10.77    1.77
  -7  -3  14   27.20    3.15
  -7  10 -14   25.76    2.24
   7 -10  14   28.66    2.72
  10  -3 -14   24.31    2.64
 -10   3  14   20.95    2.80
   7   3 -14   25.86    2.60
  10  -3 -11    0.69    0.44
  -7  10 -11    0.98    0.35
 -10   3  11    0.12    0.48
   7 -10  11    0.57    0.39
 -10   7  -8  211.99   13.23
   7   3  -8  236.27   14.01
  -7  -3   8  233.45   14.45
  10  -7   8  206.14   13.55
  -3  10   5   17.78    1.06
   7 -10   5   14.59    1.56
  10  -7   5   16.56    1.47
   7   3  -5   16.57    1.63
 -10   3   5   17.81    1.92
  10  -3  -5   17.57    1.82
  -7  10  -5   15.32    1.29
  -7  -3   5   15.03    1.79
   3 -10  -5   13.65    1.15
 -10   7  -5   16.24    1.19
 -10   3   2 1291.92   84.27
  10  -7   2 1317.22   83.87
   3 -10  -2 1288.05   84.05
  -7  10  -2 1425.81   83.79
   3   7   2 1412.12   83.86
   7 -10   2 1330.41   84.14
  10  -3  -2 1219.03   84.21
 -10   7  -2 1294.18   83.58
  -3  -7  -2 1167.53   84.15
  -3  10   2 1503.06   83.75
  -7  10   1   33.04    2.45
 -10   7   1   30.54    2.57
   3   7  -1   35.68    2.85
  -3  10  -1   35.36    2.71
   7   3   1   30.33    2.71
  -7  -3  -1   28.70    2.87
 -10   3  -1   33.35    2.86
   3 -10   1   28.76    2.83
  10  -3   1   27.29    2.79
  -3  -7   1   28.20    2.97
  10  -7  -1   33.16    2.80
   7 -10  -1   27.77    2.59
  -7  10   4  990.74   61.85
   3   7  -4 1113.96   62.43
  -3  10  -4  958.62   61.97
 -10   7   4 1038.90   62.42
 -10   3  -4  957.25   61.90
  -7  -3  -4  941.23   62.19
   7   3   4 1097.55   62.11
   3 -10   4  893.79   62.23
  10  -7  -4  970.92   62.52
  -3  -7   4 1013.27   62.80
  10  -3   4  984.54   62.15
   7 -10  -4  938.34   61.96
  -3  10  -7   12.47    1.42
  -7  -3  -7   12.05    1.27
   7   3   7   10.60    1.09
 -10   3  -7   13.59    1.25
   3 -10   7   15.03    1.75
  -7  10   7   12.47    1.50
  10  -7  -7   16.14    1.85
   7 -10  -7   14.15    1.65
  -3  -7   7   19.52    2.20
 -10   7   7   11.69    1.73
   3   7  -7   14.91    1.65
  10  -3   7   13.05    1.36
  -3  10 -10  107.71    7.82
   7 -10 -10  100.92    7.99
   3 -10  10  122.01    8.37
   3   7 -10  116.04    8.10
  -3  -7  10  136.04    8.91
  -3  -7  13    0.12    0.37
  -3  10 -13    0.17    0.25
   3   7 -13   -0.07    0.36
 -10   7  13    0.85    0.42
   3 -10  13    0.32    0.35
  10  -7 -13   -0.45    0.46
   3   7 -16   10.64    1.45
  -3  -7  16   15.14    1.90
  10  -2 -15    0.79    0.35
  -8  -2  15    0.74    0.40
   8   2 -15    1.11    0.41
 -10   2  12    1.96    0.79
   8   2 -12    1.99    0.66
 -10   8 -12    2.01    0.48
  10  -8  12    2.90    0.70
  10  -2 -12    3.13    0.80
   8 -10  12    2.82    0.75
  -8  -2  12    2.09    0.77
 -10   8  -9    9.57    1.09
  -8  10  -9   11.28    1.19
  -8  -2   9    8.84    1.54
   8   2  -9   10.61    1.53
  10  -2  -9   10.10    1.44
   8 -10   9   10.59    1.40
  10  -8   9   11.31    1.42
   8 -10   6   41.52    3.52
  -8  10  -6   41.05    3.14
  -8  -2   6   44.47    3.92
  10  -8   6   36.02    3.25
 -10   2   6   42.79    3.85
  10  -2  -6   40.23    3.57
   8   2  -6   42.74    3.57
   8 -10   3   25.05    2.50
  -2  10   3   35.33    2.31
   2   8   3   28.52    2.24
  10  -8   3   25.29    2.37
   8   2  -3   26.21    2.54
  -2  -8  -3   19.82    2.26
  -8  -2   3   24.47    2.75
  10  -2  -3   25.74    2.65
 -10   2   3   28.63    2.84
  -8  10  -3   31.04    2.37
 -10   8  -3   24.60    2.09
   2 -10  -3   25.55    2.41
   2   8   0   73.19    4.92
  -8  -2   0   57.75    5.09
  -8  10   0   75.46    4.65
   8 -10   0   54.23    4.71
  10  -8   0   62.71    4.75
 -10   8   0   67.68    4.54
  -2  -8   0   58.05    5.17
   2 -10   0   58.72    5.00
 -10   8   3   11.31    1.31
  -2  -8   3   11.47    1.64
   2 -10   3   10.88    1.47
   2   8  -3   11.16    1.34
 -10   2  -3   11.57    1.40
  -8  -2  -3   11.21    1.47
  -2  10  -3   10.65    1.26
   8   2   3   11.42    1.41
  10  -2   3    8.77    1.33
  10  -8  -3   10.72    1.43
  10  -8  -6   30.07    3.03
 -10   8   6   31.37    3.02
   2 -10   6   33.26    3.19
 -10   2  -6   29.68    2.62
  -2  10  -6   33.78    2.84
   2   8  -6   31.78    2.87
  -8  -2  -6   34.90    2.91
   8   2   6   42.28    2.96
  -2  -8   6   36.26    3.41
   8 -10  -6   30.87    3.03
  10  -2   6   31.71    2.82
  -2  10  -9   10.50    1.22
   8   2   9    5.27    0.70
   8 -10  -9   10.28    1.42
  10  -2   9    9.37    1.16
   2   8  -9    9.35    1.23
  10  -8  -9    8.81    1.41
 -10   2  -9   11.08    1.11
  -8  -2  -9    7.50    0.86
 -10   8   9    7.48    1.35
   2 -10   9   10.74    1.53
  -2  -8   9   10.47    1.62
  -8  10   9    9.44    1.40
 -10   8  12    1.22    0.51
   2 -10  12   -0.09    0.31
  -2  -8  12   -0.24    0.45
   2   8 -12    0.31    0.32
  10  -8 -12    0.17    0.36
  -2  10 -12   -0.06    0.21
  -2  10 -15    0.78    0.28
  -2  -8  15    0.97    0.41
   2   8 -15    0.48    0.33
   2 -10  15    0.72    0.32
  -9  -1  13    0.13    0.50
 -10   1  13    0.86    0.49
  -9  10 -13    0.54    0.31
   9   1 -13    0.34    0.35
   9 -10  13    0.34    0.39
  10  -1 -13    0.36    0.41
 -10   9 -10    4.78    0.73
  -9  -1  10    3.96    1.03
   9 -10  10    5.71    1.00
 -10   1  10    5.74    1.17
  10  -9  10    4.01    0.85
   9   1 -10    4.70    0.98
  -9  10 -10    4.78    0.74
  10  -9   7   12.15    1.40
  -9  10  -7   12.31    1.13
 -10   9  -7   12.93    1.11
   9   1  -7   11.35    1.47
   1 -10  -7    6.01    0.66
   9 -10   7   12.18    1.51
  -1  10   7    6.34    0.66
  -9  -1   7   13.03    1.79
  -9  10  -4  216.85   14.33
  10  -1  -4  223.59   14.95
 -10   9  -4  211.47   14.25
   9 -10   4  200.43   14.62
   1 -10  -4  218.63   14.45
  -9  -1   4  209.25   15.13
  10  -9   4  195.03   14.48
 -10   1   4  222.19   15.20
   9   1  -4  204.43   14.77
  10  -1  -1   19.64    2.24
 -10   9  -1   20.84    1.78
  -1  10   1   27.91    2.19
  -9  -1   1   20.80    2.36
   1 -10  -1   16.83    2.11
   9 -10   1   19.21    1.99
  -9  10  -1   23.94    1.89
   9   1  -1   21.43    2.24
  -1  -9  -1   18.35    2.19
 -10   1   1   21.47    2.37
  10  -9   1   21.71    2.05
   1   9   1   22.17    2.02
  -9  10   2  166.99   10.50
 -10   9   2  163.50   10.65
 -10   1  -2  142.01   10.91
  -1  10  -2  176.76   10.90
  -1  -9   2  162.49   11.49
   1   9  -2  187.43   11.10
  10  -1   2  151.94   11.04
   1 -10   2  141.16   11.06
   9   1   2  176.55   11.20
  -9  -1  -2  148.71   11.11
  10  -9  -2  154.07   10.77
   9 -10  -2  149.86   10.71
  -1  10  -5   46.74    3.72
  -9  10   5   45.18    3.64
  10  -1   5   45.93    3.86
  -1  -9   5   45.37    4.20
   1   9  -5   48.60    3.76
 -10   1  -5   41.96    3.66
 -10   9   5   41.72    3.79
   9   1   5   50.74    3.84
   9 -10  -5   40.87    3.76
  -9  -1  -5   45.53    3.81
   1 -10   5   49.68    4.08
 -10   1  -8   59.12    4.30
  -1  10  -8   54.88    4.44
   1 -10   8   60.07    4.86
  10  -9  -8   56.75    4.76
  -1  -9   8   65.38    5.22
   9   1   8   67.10    4.56
   9 -10  -8   48.90    4.58
 -10   9   8   55.46    4.83
   1   9  -8   53.95    4.45
  -9  10   8   47.72    4.60
  -9  -1  -8   60.75    4.49
  10  -1   8   60.20    4.58
  -1  -9  11    1.55    0.68
   1   9 -11    1.94    0.58
  -9  10  11    0.98    0.60
   9 -10 -11    1.76    0.60
  -1  10 -11    1.49    0.49
  10  -9 -11    1.73    0.62
  -1  -9  14    1.43    0.54
   1   9 -14    0.70    0.36
  -1  10 -14    1.05    0.39
   1 -10  14    1.25    0.50
  10   0 -14   18.63    2.08
 -10   0  14   14.78    2.29
 -10  10 -11   -0.05    0.19
  10   0 -11   -0.09    0.32
  10 -10  11    0.23    0.30
 -10   0  11    0.12    0.43
  10 -10   8  363.76   25.04
  10   0  -8  368.71   25.12
 -10  10  -8  402.80   24.72
 -10   0   8  404.36   25.86
 -10   0   5    0.11    0.44
  10   0  -5   -0.34    0.33
 -10  10  -5    0.04    0.15
  10 -10   5   -0.07    0.28
 -10  10  -2  745.10   46.34
   0 -10  -2  611.44   46.71
 -10   0   2  675.98   47.09
  10   0  -2  712.58   46.93
  10 -10   2  714.59   46.66
  10 -10  -1   -0.06    0.22
 -10  10   1    0.18    0.16
 -10   0  -4 1099.70   77.90
   0  10  -4 1291.56   77.85
   0 -10   4 1356.03   78.57
  10   0   4 1245.76   78.01
  10 -10  -4 1231.68   77.96
  10 -10  -7    0.49    0.41
  10   0   7   -0.24    0.35
   0 -10   7    0.11    0.36
 -10   0  -7    0.07    0.29
 -10  10   7    0.18    0.33
  10 -10 -10   81.89    6.29
 -10  10  10   74.26    6.29
   0 -10  13    0.10    0.39
   0  10 -13    0.14    0.28
  -6  -5  14    4.06    1.07
  -6  11 -14    4.58    0.76
 -11   5  14    1.35    0.59
   6   5 -14    4.72    0.91
  11  -5 -14    4.21    1.03
   6   5 -11   13.52    1.74
 -11   6 -11   12.93    1.31
  11  -5 -11   10.85    1.62
  11  -6  11   15.89    1.64
  -6  -5  11   15.80    2.21
 -11   5  11   12.74    1.98
  -5  11   8    6.87    1.03
 -11   6  -8    7.50    0.86
   6 -11   8    9.38    1.36
   6   5  -8    7.83    1.20
  11  -6   8    7.30    1.04
  -6  11  -8    6.90    0.97
   5 -11  -8    6.62    0.99
 -11   5   8    7.10    1.35
  -6  -5   8    9.62    1.57
  -6  -5   5  112.49    8.39
  11  -6   5  106.77    7.64
 -11   6  -5  105.64    7.35
  -6  11  -5  108.32    7.58
   6 -11   5  130.64    8.25
   5   6   5  121.14    7.39
   6   5  -5  117.13    8.01
   5 -11  -5  107.21    7.53
  11  -5  -5  108.98    8.12
  -5  11   5  122.35    7.37
 -11   5   5  122.47    8.37
   5 -11  -2   12.82    1.57
 -11   5   2   13.52    1.69
  -5  11   2   16.21    1.42
   5   6   2   16.28    1.65
   6 -11   2   14.08    1.73
  -6  -5   2   13.54    1.84
   6   5  -2   17.54    1.85
  -6  11  -2   16.17    1.50
  11  -5  -2   14.19    1.80
  11  -6   2   14.04    1.53
  -5  -6  -2   12.99    1.76
 -11   6  -2   14.59    1.44
  -6  -5  -1   39.66    3.74
  -5  11  -1   47.09    3.45
   5 -11   1   47.39    3.80
  11  -5   1   40.56    3.62
   6   5   1   48.42    3.74
 -11   5  -1   43.60    3.48
  11  -6  -1   50.41    3.93
 -11   6   1   41.02    3.49
   5 -11   4    0.35    0.37
  11  -6  -4    0.19    0.35
  -5  11  -4    0.78    0.33
  -6  11   4    0.71    0.26
  -5  -6   4    0.11    0.38
   6 -11  -4    0.98    0.40
   5   6  -4    0.07    0.24
   6   5   4    0.71    0.35
 -11   5  -4    0.25    0.24
  -6  -5  -4    0.57    0.39
 -11   6   4    0.34    0.32
  11  -5   4    0.31    0.25
  11  -5   7   87.33    6.41
  -6  11   7   99.27    6.62
 -11   5  -7   88.61    6.15
   6 -11  -7   83.16    6.62
  11  -6  -7   91.71    6.99
   5   6  -7   99.50    6.90
  -5  -6   7   99.98    7.46
 -11   6  10    0.35    0.41
   5   6 -10    0.41    0.40
  -6  11  10    0.30    0.34
 -11   5 -10    0.40    0.24
  11  -6 -10    1.35    0.60
  -5  -6  10    0.48    0.53
  11  -5  10    0.66    0.38
   6 -11 -10    0.80    0.38
 -11   6  13    6.27    1.23
   5 -11  13    6.48    1.13
  -5  11 -13    6.49    0.99
  11  -6 -13    4.74    1.07
  -5  -6  16    3.82    0.91
   5   6 -16    3.21    0.67
 -11   7 -12    3.63    0.62
   7   4 -12    5.14    1.02
 -11   4  12    3.19    1.00
  11  -4 -12    3.75    0.89
  -7  11 -12    3.85    0.68
  -7  -4  12    3.52    1.14
   7 -11  12    3.85    0.89
  -4  11   9    0.52    0.26
  11  -7   9    0.19    0.27
  -7  11  -9    0.60    0.27
 -11   7  -9    0.64    0.29
  -7  -4   9    0.94    0.56
 -11   4   9    0.35    0.46
  11  -4  -9    0.79    0.44
   4 -11  -9    0.37    0.23
  11  -4  -6   -0.09    0.37
  -4  11   6    0.26    0.19
  -7  -4   6    0.21    0.40
 -11   7  -6    0.24    0.17
  -7  11  -6    0.89    0.36
   7   4  -6    0.78    0.41
  11  -7   6    0.23    0.26
 -11   4   6    0.11    0.28
   7 -11   6    0.08    0.30
   4 -11  -6    0.20    0.22
  11  -7   3   33.34    2.87
   4 -11  -3   28.68    2.84
  11  -4  -3   32.58    3.24
   4   7   3   41.80    2.94
   7   4  -3   31.29    3.03
 -11   7  -3   37.78    2.69
  -4  11   3   41.31    2.76
   7 -11   3   31.12    3.08
  -7  -4   3   29.41    3.19
  -4  -7  -3   31.10    3.12
 -11   4   3   37.47    3.35
  -7  11  -3   34.90    2.80
 -11   4   0  352.72   22.92
   7 -11   0  319.10   22.75
  -7  -4   0  334.81   23.23
  -7  11   0  353.88   22.40
   4   7   0  410.18   23.01
 -11   7   0  346.62   22.53
  11  -7   0  345.82   22.72
   7   4   0  362.73   22.87
  11  -4   0  342.64   23.04
  -4  -7   0  349.02   23.44
  11  -4   3    0.81    0.40
  11  -7  -3    0.55    0.40
   4 -11   3    1.10    0.48
 -11   7   3    1.58    0.54
   7   4   3    0.55    0.36
  -4  11  -3    0.65    0.32
   4   7  -3    0.82    0.44
  -7  -4  -3    0.54    0.40
  -4  -7   3    0.84    0.57
   7 -11  -6    2.30    0.63
 -11   7   6    1.77    0.64
  -7  11   6    1.72    0.48
  11  -4   6    1.93    0.49
  -7  -4  -6    1.65    0.46
  -4  11  -6    2.20    0.53
   4   7  -6    3.29    0.73
  11  -7  -6    2.21    0.72
   4 -11   6    1.43    0.57
   7   4   6    2.43    0.47
  -4  -7   6    1.85    0.78
 -11   4  -6    2.19    0.47
 -11   4  -9   17.27    1.47
  11  -7  -9   12.35    1.83
   4 -11   9   14.95    1.82
 -11   7   9   14.60    2.03
   4   7  -9   14.66    1.78
  -4  -7   9   16.02    2.21
  -4  11  -9   12.93    1.53
  11  -4   9   17.36    1.68
   4 -11  12    3.58    0.83
  -4  11 -12    2.61    0.61
   4   7 -12    3.39    0.77
  -4  -7  12    3.49    1.02
 -11   7  12    3.19    0.95
  11  -7 -12    2.89    0.78
   4 -11  15    0.60    0.30
  -4  11 -15    0.57    0.25
   8   3 -16    0.84    0.34
  -8  11 -13    1.50    0.43
 -11   3  13    1.56    0.58
   8 -11  13    2.62    0.67
  11  -3 -13    1.63    0.64
  11  -8  10    0.44    0.33
  -8  11 -10    0.66    0.30
  -8  -3  10    0.71    0.58
  11  -3 -10    1.05    0.53
   8   3 -10    0.75    0.40
 -11   3  10    0.39    0.51
 -11   8 -10    0.36    0.23
   8 -11  10    0.47    0.33
  -8  -3   7   -0.11    0.38
  -3  11   7    0.04    0.19
   3 -11  -7   -0.09    0.20
 -11   8  -7    0.12    0.18
  11  -8   7    0.59    0.35
 -11   3   7    0.45    0.44
   8   3  -7   -0.09    0.31
  11  -3  -7   -0.09    0.27
 -11   8  -4    9.32    1.04
   3 -11  -4    9.56    1.20
   8 -11   4   11.02    1.50
  -3  11   4   14.29    1.17
  -8  11  -4   11.39    1.19
  11  -8   4    8.76    1.21
   8   3  -4    9.96    1.41
  11  -3  -4   12.45    1.63
 -11   3   4   11.38    1.64
  -8  -3   4   12.36    1.76
   8 -11   1   16.60    1.90
 -11   3   1   18.64    2.09
  -8  11  -1   19.38    1.69
  -3  11   1   21.40    1.82
  -8  -3   1   17.42    2.20
   3 -11  -1   17.91    1.99
   3   8   1   20.17    1.91
   8   3  -1   18.84    2.01
  11  -3  -1   16.76    2.03
 -11   8  -1   20.40    1.65
  -3  -8  -1   15.94    2.09
  11  -8   1   16.32    1.76
   3   8  -2   30.56    2.50
   3 -11   2   22.27    2.41
   8   3   2   26.30    2.39
  -8  -3  -2   19.66    2.38
  -3  -8   2   20.15    2.57
  11  -8  -2   22.28    2.36
 -11   8   2   23.60    2.19
   8 -11  -2   23.55    2.23
  -3  11  -2   25.88    2.27
  -8  11   2   25.33    2.00
  -8  -3  -5    4.87    0.92
  -3  11  -5    5.12    0.79
 -11   8   5    3.86    0.87
   8   3   5    4.99    0.82
   3   8  -5    4.37    0.85
  -3  -8   5    5.42    1.18
   3 -11   5    3.86    0.86
  -8  11   5    4.34    0.74
   8 -11  -5    4.88    0.91
  11  -8  -5    4.27    0.97
  11  -8  -8   -0.10    0.37
   3 -11   8    0.26    0.31
  -3  11  -8    0.23    0.25
  -8  -3  -8   -0.03    0.12
   3   8  -8    0.37    0.34
 -11   8   8    0.22    0.41
  -8  11   8    0.49    0.39
   8 -11  -8    0.17    0.35
  -3  -8   8    0.46    0.48
 -11   8  11    0.72    0.50
  -3  -8  11    1.31    0.67
   3   8 -11    0.73    0.39
   3 -11  11    0.85    0.48
  11  -8 -11    0.74    0.47
   3 -11  14    2.97    0.73
  -3  -8  14    3.00    0.83
  -3  11 -14    1.59    0.50
   3   8 -14    2.47    0.67
 -11   2  14    4.91    1.06
   9   2 -14    3.08    0.88
  11  -2 -14    3.94    0.95
  -9  -2  14    4.10    1.11
 -11   2  11   36.00    3.72
  11  -9  11   36.06    3.23
  11  -2 -11   40.76    3.46
 -11   9 -11   35.67    2.86
  -9  -2  11   38.69    3.78
  -9  -2   8   10.60    1.58
  -9  11  -8   12.50    1.14
 -11   2   8   10.94    1.70
  11  -2  -8   11.95    1.47
   9   2  -8   12.56    1.49
  -2  11   8    5.47    0.56
  -9  -2   5  208.71   13.71
  -9  11  -5  209.10   12.62
   2   9   5  177.69   12.17
 -11   2   5  193.90   13.39
  11  -2  -5  195.67   13.16
 -11   9  -5  185.79   12.42
   2 -11  -5  191.99   12.50
   9 -11   5  198.19   13.02
  -2  11   5  224.74   12.30
  11  -9   5  179.59   12.73
  -2  -9  -5  157.09   12.33
   9   2  -5  193.03   13.05
  11  -9   2   20.79    2.09
   9 -11   2   20.97    2.18
 -11   9  -2   21.24    1.88
  -9  11  -2   22.24    1.95
  -9  -2   2   21.33    2.52
  -2  11   2   29.84    2.15
   9   2  -2   24.21    2.40
  -2  -9  -2   19.84    2.30
  11  -2  -2   24.14    2.48
   2   9   2   29.91    2.31
 -11   2   2   23.38    2.55
   2 -11  -2   19.77    2.23
 -11   9   1  311.51   19.69
   9 -11  -1  310.16   19.89
   9   2   1  312.46   20.15
   2 -11   1  281.38   20.11
  -9  -2  -1  269.63   20.20
 -11   2  -1  285.42   20.09
  -9  11   1  322.98   19.55
  11  -9  -1  316.01   19.86
  -9  11   4   30.39    2.47
   2   9  -4   30.30    2.70
   2 -11   4   31.39    2.94
  -9  -2  -4   27.97    2.84
   9   2   4   31.25    2.81
 -11   9   4   24.59    2.52
  -2  11  -4   27.74    2.55
  -2  -9   4   33.74    3.28
  11  -9  -4   29.99    2.89
   9 -11  -4   28.77    2.61
   2   9  -7  143.61   10.04
  -9  11   7  132.95   10.09
  -9  -2  -7  154.63   10.14
   2 -11   7  154.04   10.41
   9   2   7  183.48   10.18
  11  -9  -7  138.96   10.34
  -2  -9   7  158.58   10.80
   9 -11  -7  137.39   10.28
  11  -2   7  140.90   10.11
 -11   2  -7  142.11    9.81
  -2  11  -7  135.93    9.88
 -11   9   7  137.13   10.38
   9 -11 -10    0.28    0.32
 -11   9  10   -0.12    0.40
  -9  11  10   -0.10    0.43
  11  -9 -10    0.10    0.39
  -2  11 -13   21.81    2.24
   2 -11  13   27.71    2.64
  -2  -9  13   31.38    3.09
   2   9 -13   27.39    2.52
  11  -1 -15    1.05    0.41
  10   1 -15    0.75    0.36
 -11   1  15    1.29    0.54
 -10  -1  15    1.37    0.58
 -10  -1  12   -0.12    0.51
 -10  11 -12    0.05    0.21
 -11   1  12   -0.36    0.52
  10   1 -12   -0.09    0.31
  11  -1 -12    0.09    0.31
  10 -11  12    0.24    0.33
 -10  -1   9    5.10    1.22
  11  -1  -9    9.25    1.37
  10 -11   9    7.45    1.25
 -10  11  -9    8.42    1.05
  10   1  -9    8.10    1.28
 -11  10  -9    8.86    1.00
 -11   1   9   11.03    1.78
  11 -10   9    8.49    1.24
 -11  10  -6   13.23    1.12
  11 -10   6   12.24    1.34
 -11   1   6   12.51    1.79
 -10  -1   6   11.42    1.75
   1  10   6    7.41    0.61
  10   1  -6   14.39    1.63
  11  -1  -6   11.37    1.49
  -1 -10  -6    7.17    0.65
   1 -11  -3    7.86    1.18
  10 -11   3    7.50    1.11
   1  10   3   10.24    1.14
 -11   1   3    6.66    1.29
  -1 -10  -3    6.40    1.10
  -1  11   3    8.59    0.97
  11 -10   3    6.72    1.04
  10   1  -3    7.78    1.23
 -11  10  -3    7.46    0.87
 -10  11  -3    6.76    0.87
 -10  -1   3    6.39    1.31
  11  -1  -3    6.07    1.16
  11 -10   0   72.57    5.27
 -11   1   0   70.28    5.72
  10   1   0   70.97    5.57
 -10  -1   0   67.29    5.70
 -11  10   0   71.56    4.97
  11  -1   0   71.72    5.63
 -10  11   0   72.54    4.97
  10 -11   0   69.44    5.28
 -11  10   3   17.45    1.81
   1  10  -3   20.68    2.07
  -1  11  -3   18.04    1.91
 -10  11   3   21.51    1.84
   1 -11   3   20.28    2.33
  10   1   3   21.15    2.21
  -1 -10   3   14.78    2.16
 -10  -1  -3   17.41    2.18
  11 -10  -3   16.42    1.96
  10 -11  -3   17.79    1.86
 -11  10   6   24.65    2.57
   1 -11   6   26.87    2.71
 -10  11   6   23.34    2.52
 -11   1  -6   22.17    2.38
  -1  11  -6   27.30    2.44
   1  10  -6   23.90    2.46
  10   1   6   28.12    2.61
  -1 -10   6   25.64    2.92
  11 -10  -6   23.29    2.62
 -10  -1  -6   25.19    2.58
  11  -1   6   24.51    2.57
  10 -11  -6   21.42    2.52
   1 -11   9    4.98    1.06
 -11   1  -9    3.95    0.89
  11  -1   9    4.25    0.98
  -1 -10   9    5.47    1.17
   1  10  -9    5.07    0.94
  -1  11  -9    4.67    0.85
  10 -11  -9    4.20    0.97
 -10  11   9    4.21    1.03
   1 -11  12    0.09    0.41
  -1 -10  12    0.11    0.43
  -1  11 -12   -0.06    0.33
  -1  11 -15    0.40    0.20
   1 -11  15    0.83    0.35
  -1 -10  15    1.09    0.44
   1  10 -15    0.84    0.31
 -11  11 -13    0.28    0.24
  11 -11  13    0.52    0.32
  11   0 -13   -0.09    0.35
 -11  11 -10    4.83    0.75
 -11   0  10    3.97    1.04
  11 -11  10    4.69    0.92
  11   0 -10    4.55    1.00
 -11   0   7    0.13    0.42
  11   0  -7   -0.09    0.28
 -11  11  -4    1.29    0.37
   0 -11  -4    1.20    0.56
  11 -11   4    0.71    0.36
 -11   0   4    1.27    0.61
  11   0  -4    0.73    0.44
   0  11   4    2.64    0.50
 -11   0   1    0.32    0.37
   0  11   1    0.06    0.23
 -11  11  -1    0.15    0.17
  11 -11   1    0.19    0.24
   0 -11  -1    0.09    0.29
  11   0  -1    0.09    0.30
 -11  11   2   53.99    4.18
   0  11  -2   66.81    4.67
  11   0   2   60.54    4.84
 -11   0  -2   50.76    4.77
  11 -11  -2   59.84    4.46
 -11  11   5    0.21    0.26
  11 -11  -5   -0.19    0.39
  11   0   5   -0.09    0.27
 -11   0  -5    0.19    0.31
  11 -11  -8    0.73    0.54
   0 -11   8    1.14    0.59
  11   0   8    1.88    0.60
   0  11  -8    1.46    0.51
 -11   0  -8    1.07    0.51
 -11  11   8    2.65    0.74
   0 -11  11    0.10    0.35
   0  11 -11    0.07    0.27
 -11  11  11    0.86    0.43
  11 -11 -11   -0.10    0.41
   0  11 -14    0.77    0.40
  -6  -6   0   48.01    4.70
   6 -12   0   55.34    4.58
 -12   6   0   51.16    4.31
   6   6   0   61.84    4.59
  12  -6   0   48.04    4.51
  -6  12  -3    3.08    0.62
  -6  -6  -3    3.11    0.83
  -6  -6   3    2.82    0.84
  12  -6   3    3.48    0.72
 -12   6   3    3.96    0.86
 -12   6  -3    2.79    0.58
  12  -6  -3    3.00    0.82
   6   6   3    4.94    0.82
   6   6  -3    3.69    0.79
   6 -12   3    2.93    0.78
 -12   6  -6   58.24    3.00
  -6  12   6   63.03    3.25
  -6  12  -6   58.39    3.29
   6 -12   6   67.82    4.10
   6 -12  -6   56.00    3.44
  -6  -6   6   55.04    4.21
  12  -6   6   51.56    3.22
  12  -6   9    5.86    0.96
 -12   6  -9    6.22    0.79
   6 -12  -9    5.25    0.94
   6 -12   9    8.05    1.28
   6   6  -9    7.37    1.23
 -12   6   9    6.22    1.29
  -6  12  -9    6.47    0.96
  -6  -6   9    7.79    1.56
  12  -6  -9    4.64    1.05
  -6  12   9    4.56    0.92
   6 -12  12    0.19    0.30
  -6  12 -12    0.29    0.29
  -6  -6  12    0.38    0.47
 -12   6  12    0.55    0.57
  12  -6 -12    0.19    0.37
  -6  -6  15    0.24    0.22
   6   6 -15    0.58    0.27
  -7  -5  16    1.06    0.47
   7   5 -16    0.43    0.23
 -12   5  13    5.47    1.16
   7   5 -13    5.75    1.07
  12  -5 -13    5.52    1.09
  -7  -5  13    8.71    1.58
   7   5 -10    0.09    0.35
  12  -5 -10    0.28    0.34
 -12   5  10    0.24    0.48
  -7  -5  10    0.26    0.35
  12  -7   7   27.50    2.49
  -5  12   7   25.80    2.37
  -7  12  -7   28.82    2.39
   7   5  -7   28.37    2.73
 -12   5   7   31.01    3.10
 -12   7  -7   26.52    2.21
  12  -5  -7   29.93    2.94
   7 -12   7   31.84    2.87
   5 -12  -7   24.32    2.47
  -7  -5   7   28.66    3.09
  -5  12   4   69.16    4.58
  -7  12  -4   64.13    4.73
   7 -12   4   57.32    5.03
   5   7   4   80.76    4.89
  -7  -5   4   57.87    5.31
   7   5  -4   68.12    5.21
 -12   7  -4   63.67    4.56
  -5  -7  -4   56.79    5.05
  12  -5  -4   61.02    5.23
 -12   5   4   60.76    5.29
   5 -12  -4   65.93    4.88
  -7  12  -1   86.49    5.58
 -12   7  -1   70.21    5.48
   5 -12  -1   75.81    5.87
 -12   5   1   74.68    5.85
   7   5  -1   77.57    5.88
   5   7   1   93.50    6.05
   7 -12   1   73.22    5.81
  12  -5  -1   66.70    5.89
  -7  -5   1   62.78    5.90
  -5  -7  -1   67.43    6.12
  12  -7   1   69.71    5.63
  -5  12   1   94.37    5.63
   7   5   2   61.84    4.33
  -7  12   2   60.34    3.90
 -12   5  -2   47.89    3.97
   5 -12   2   48.00    4.29
 -12   7   2   54.50    4.31
  -5  12  -2   55.72    4.00
  -7  -5  -2   43.20    4.23
  12  -7  -2   48.82    4.36
  12  -5   2   43.47    4.12
   7 -12  -2   47.32    4.06
  -5  -7   2   53.48    4.72
 -12   7   5   33.09    3.30
   5 -12   5   40.86    3.41
 -12   5  -5   31.52    2.75
  -5  12  -5   40.18    3.07
   5   7  -5   38.14    3.27
  12  -7  -5   29.61    3.15
  -5  -7   5   39.11    3.78
  12  -5   5   31.61    2.88
  -7  -5  -5   33.75    3.08
 -12   5  -8   15.29    1.46
  -5  12  -8   19.02    1.82
   5 -12   8   15.29    1.88
 -12   7   8   14.83    2.08
  12  -7  -8   15.95    2.04
  -5  -7   8   18.25    2.41
   5   7  -8   17.51    1.93
  12  -5   8   13.36    1.60
  12  -7 -11   15.77    2.05
  -5  12 -11   20.75    1.94
   5   7 -11   17.13    1.94
 -12   7  11   14.32    2.20
  -5  -7  11   17.66    2.31
   5 -12  11   17.81    2.10
   5 -12  14    0.18    0.27
  -5  12 -14    0.06    0.23
  -5  -7  14    0.94    0.44
   5   7 -14    0.73    0.31
  -8  12 -14    2.51    0.55
   8   4 -14    3.41    0.77
  12  -4 -14    2.38    0.75
 -12   4  14    2.10    0.69
  -8  -4  14    2.86    0.85
   8 -12  14    2.69    0.67
  12  -8  11   17.57    1.82
 -12   8 -11   15.68    1.49
  -8  12 -11   14.63    1.53
   8 -12  11   13.60    1.78
   8   4 -11   16.54    1.94
  12  -4 -11   13.46    1.82
 -12   4  11   16.96    2.37
  -8  -4  11   16.21    2.29
 -12   4   8    0.95    0.52
  -8  -4   8    1.57    0.69
 -12   8  -8    1.03    0.31
  -8  12  -8    0.68    0.31
   4 -12  -8    1.05    0.36
  -4  12   8    0.98    0.36
   8   4  -8    0.94    0.49
   8 -12   8    0.48    0.38
  12  -8   8    0.44    0.35
  12  -4  -8    0.58    0.44
   4 -12  -5  223.75   12.61
  -8  -4   5  188.94   13.28
  -8  12  -5  202.53   12.44
   8 -12   5  197.64   12.92
   4   8   5  208.48   12.23
   8   4  -5  219.58   13.11
  12  -4  -5  219.97   13.31
 -12   4   5  215.77   13.48
 -12   8  -5  193.55   12.26
  -4  12   5  247.96   12.30
  12  -8   5  200.73   12.61
  -4  12   2    2.86    0.60
  -4  -8  -2    1.99    0.74
   8   4  -2    2.36    0.66
   4 -12  -2    3.09    0.79
  -8  12  -2    2.77    0.59
  12  -8   2    3.42    0.66
 -12   4   2    2.92    0.79
   4   8   2    3.11    0.66
  -8  -4   2    3.43    0.93
   8 -12   2    2.03    0.67
 -12   8  -2    3.20    0.53
  12  -4  -2    2.54    0.70
  -8  12   1  105.66    6.83
  -4  12  -1  105.74    6.98
   4   8  -1  110.54    7.37
  -8  -4  -1   96.80    7.64
 -12   4  -1   97.04    7.26
   8   4   1  100.29    7.25
 -12   8   1   92.90    6.94
   4 -12   1   99.36    7.47
  12  -4   1   96.87    7.41
   8 -12  -1   91.82    7.03
  -4  -8   1   95.59    7.73
  12  -8  -1   97.08    7.22
  -8  12   4   24.35    1.92
 -12   8   4   19.67    2.26
  -4  12  -4   24.57    2.23
   4   8  -4   24.75    2.39
   4 -12   4   20.78    2.33
   8   4   4   23.29    2.21
  -8  -4  -4   20.75    2.42
 -12   4  -4   18.50    2.00
  12  -8  -4   22.39    2.48
  -4  -8   4   22.98    2.67
  12  -4   4   18.79    2.17
   8 -12  -4   22.57    2.12
  -8  -4  -7   83.25    6.79
   4   8  -7  111.00    7.40
  -4  12  -7  103.33    7.03
  -8  12   7  110.71    7.41
   8   4   7   86.93    6.58
   4 -12   7  104.14    7.42
 -12   4  -7  106.76    6.95
   8 -12  -7   98.28    7.42
  -4  -8   7  114.99    8.08
  12  -4   7  100.40    7.06
 -12   4 -10    9.49    1.17
 -12   8  10    7.35    1.54
  -4  12 -10    9.06    1.21
   4 -12  10   11.66    1.54
   4   8 -10    9.23    1.32
  12  -8 -10   10.80    1.59
   8 -12 -10    8.64    1.44
  -4  -8  10   10.09    1.75
  12  -4  10   11.19    1.35
  -4  12 -13   10.38    1.28
   4   8 -13    9.99    1.38
   4 -12  13   13.07    1.62
   4   8 -16    0.89    0.33
  -4  -8  16    0.98    0.43
   9   3 -15    0.76    0.34
  -9  -3  15    0.91    0.45
 -12   9 -12    2.13    0.47
  -9  12 -12    1.98    0.46
 -12   3  12    2.32    0.82
  12  -9  12    1.95    0.55
  12  -3 -12    2.40    0.73
   9 -12  12    1.92    0.61
  -9  -3   9    0.48    0.48
  12  -9   9    0.82    0.37
  -9  12  -9    0.66    0.31
   9 -12   9    0.88    0.45
 -12   9  -9    0.91    0.32
   9   3  -9    1.15    0.52
  12  -3  -9    1.27    0.55
 -12   3   9    1.35    0.69
  -3  12   6   59.30    3.72
  12  -9   6   47.86    3.99
  -9  -3   6   42.87    4.37
  -9  12  -6   49.87    3.81
   9   3  -6   52.26    4.29
 -12   9  -6   51.34    3.72
   9 -12   6   48.43    4.28
  12  -3  -6   48.63    4.33
   3 -12  -6   49.03    3.74
 -12   3   6   54.83    4.71
  12  -9   3   18.78    1.93
  -3  12   3   26.84    1.99
 -12   9  -3   17.56    1.65
  -9  -3   3   20.25    2.52
   9 -12   3   17.45    2.02
   3   9   3   26.31    2.08
   9   3  -3   18.69    2.14
  -3  -9  -3   15.31    2.02
   3 -12  -3   19.59    2.07
  -9  12  -3   17.88    1.80
 -12   3   3   21.21    2.40
  12  -3  -3   17.56    2.18
  -9  -3   0  128.25    9.42
 -12   3   0  119.34    9.09
  -3  12   0  146.33    8.84
  -9  12   0  137.90    8.62
   9   3   0  129.51    9.08
   3 -12   0  141.32    9.40
  12  -3   0  119.25    9.14
 -12   9   0  123.56    8.64
   9 -12   0  109.97    8.76
  12  -9   0  123.18    8.78
 -12   3  -3    0.56    0.41
   3 -12   3    0.82    0.50
 -12   9   3    1.33    0.46
  12  -3   3    0.65    0.43
  12  -9  -3    0.55    0.42
  -9  12   3    0.81    0.30
  -9  -3  -3    1.51    0.61
   9 -12  -3    1.28    0.44
  -3  12  -3    0.93    0.40
   3   9  -3    0.45    0.35
  -3  -9   3   -0.12    0.52
   9   3   3    1.06    0.45
  -9  -3  -6   68.29    5.25
 -12   3  -6   61.09    4.87
  -3  12  -6   62.89    4.84
 -12   9   6   60.97    5.28
   3   9  -6   73.61    5.20
   3 -12   6   57.49    5.07
   9   3   6   80.94    5.13
  -9  12   6   64.41    5.00
  12  -9  -6   63.78    5.39
  -3  -9   6   70.77    5.75
   9 -12  -6   68.27    5.34
  12  -3   6   64.40    5.19
  -9  12   9    2.74    0.83
  12  -9  -9    1.81    0.72
 -12   3  -9    2.98    0.61
   9 -12  -9    2.91    0.83
   3 -12   9    1.92    0.68
  12  -3   9    2.52    0.70
  -3  12  -9    1.72    0.49
 -12   9   9    2.96    0.87
   3 -12  15    0.33    0.22
  -3  -9  15    0.43    0.28
  -3  12 -15    0.86    0.30
   3   9 -15    0.35    0.21
 -10  -2  13    1.56    0.60
 -12   2  13    1.09    0.48
  10   2 -13    0.78    0.49
  12  -2 -13    1.46    0.50
 -12  10 -10    3.94    0.65
 -10  -2  10    2.91    0.98
 -12   2  10    4.60    1.14
  10   2 -10    3.59    0.92
  12 -10  10    4.04    0.79
 -12  10  -7    9.57    1.05
  10 -12   7    8.78    1.30
 -12   2   7    8.92    1.57
  12  -2  -7    9.91    1.44
  10   2  -7    9.85    1.43
 -10  12  -7    9.49    1.12
 -10  -2   7    7.44    1.47
  12 -10   7    8.25    1.16
 -10  12  -4   34.62    2.94
  12 -10   4   36.49    3.17
   2 -12  -4   41.57    3.32
   2  10   4   51.13    3.18
 -12  10  -4   33.31    2.84
 -10  -2   4   38.22    3.81
 -12   2   4   34.67    3.64
  -2  12   4   49.93    3.05
  -2 -10  -4   40.81    3.52
  10   2  -4   32.63    3.33
  12  -2  -4   36.24    3.51
  10 -12   4   33.16    3.26
 -12   2   1    0.84    0.49
   2  10   1    1.88    0.56
 -10  12  -1    1.10    0.34
 -12  10  -1    1.08    0.33
  -2 -10  -1    1.01    0.55
  12 -10   1    0.98    0.42
  10 -12   1    1.00    0.44
  12  -2  -1    1.07    0.50
  10   2  -1    2.32    0.66
  10 -12  -2  145.72   10.25
   2  10  -2  171.24   10.57
   2 -12   2  125.99   10.44
 -10  12   2  163.85   10.00
  -2 -10   2  147.98   11.08
  12  -2   2  146.19   10.64
 -12   2  -2  134.72   10.47
 -12  10   2  148.76   10.16
  12 -10  -2  156.44   10.49
 -10  12   5   21.69    2.07
 -12   2  -5   18.66    2.15
 -12  10   5   17.93    2.21
  10   2   5   23.76    2.33
  12  -2   5   20.14    2.31
  10 -12  -5   21.31    2.27
 -10  -2  -5   17.33    2.23
  12 -10  -8    7.73    1.36
 -10  12   8    6.65    1.21
  -2  12  -8    8.19    1.12
 -10  -2  -8    8.85    1.30
   2  10  -8    6.86    1.12
  -2 -10   8    5.64    1.30
   2 -12   8    7.87    1.31
  10 -12  -8    6.25    1.26
 -12  10   8    8.16    1.46
 -12  10  11    0.38    0.52
   2 -12  11    1.00    0.52
  -2 -10  11    1.03    0.63
  -2  12 -11    0.93    0.39
   2  10 -11    0.62    0.34
  12 -10 -11    1.34    0.61
   2 -12  14    3.10    0.67
  -2 -10  14    2.64    0.69
  -2  12 -14    1.40    0.45
   2  10 -14    3.55    0.67
 -11  -1  14    2.35    0.74
  11   1 -14    3.03    0.69
  12  -1 -14    1.75    0.54
  12 -11  11   20.57    2.17
 -12   1  11   16.30    2.39
 -12  11 -11   20.28    1.87
  11   1 -11   21.03    2.35
  12  -1 -11   21.97    2.37
 -11  12 -11   22.97    2.03
  11 -12  11   22.95    2.34
  11 -12   8    6.01    1.05
 -12  11  -8    5.13    0.76
 -11  12  -8    6.02    0.86
 -11  -1   8    4.70    1.19
  12 -11   8    4.56    0.94
 -12   1   8    7.48    1.50
  11   1  -8    4.76    1.02
  12  -1  -8    6.06    1.10
 -12  11  -5  140.27   10.04
  -1  12   5  196.41   10.10
  12 -11   5  125.35   10.23
 -11  12  -5  133.73   10.02
  11 -12   5  129.56   10.38
  -1 -11  -5  162.52   10.27
 -11  -1   5  137.13   11.01
   1 -12  -5  147.56   10.20
 -12   1   5  138.33   11.00
   1  11   5  190.07   10.05
  11   1  -5  145.14   10.65
  12  -1  -5  142.70   10.72
  12  -1  -2    2.39    0.71
 -11  -1   2    1.52    0.69
  -1 -11  -2    1.47    0.63
 -12  11  -2    2.42    0.48
  -1  12   2    3.49    0.64
   1  11   2    2.66    0.64
  12 -11   2    1.81    0.56
 -12   1   2    1.68    0.69
  11 -12   2    2.68    0.68
 -11  12  -2    2.69    0.52
  11   1  -2    1.94    0.64
   1 -12  -2    2.63    0.77
  11 -12  -1  197.33   13.05
 -12  11   1  190.61   12.74
 -11  12   1  200.90   12.71
  -1  12  -1  204.45   13.04
  12  -1   1  201.48   13.51
   1  11  -1  239.69   13.42
   1 -12   1  155.96   13.15
 -11  -1  -1  182.35   13.55
  -1 -11   1  172.70   13.42
  11   1   1  194.23   13.43
 -12   1  -1  186.54   13.52
  12 -11  -1  195.44   12.98
 -11  12   4    9.87    1.24
   1  11  -4    8.96    1.31
  -1  12  -4    8.33    1.24
   1 -12   4    8.15    1.43
 -12   1  -4    6.98    1.31
  11   1   4   10.41    1.54
  -1 -11   4    8.89    1.58
  12  -1   4    9.11    1.42
  12 -11  -4    8.14    1.36
  11 -12  -4    8.08    1.30
 -11  12   7   71.96    6.07
   1  11  -7   79.39    5.94
   1 -12   7   76.62    6.26
  -1  12  -7   78.10    5.83
  11   1   7   96.77    6.43
  -1 -11   7   79.80    6.50
 -11  -1  -7   82.14    6.34
  12 -11  -7   76.52    6.31
  11 -12  -7   71.51    6.23
  12 -11 -10    4.35    1.13
  11 -12 -10    4.38    1.07
   1  11 -10    5.86    0.99
   1 -12  10    5.20    1.14
  -1 -11  10    4.78    1.13
 -12  11  10    3.71    1.12
  -1  12 -10    4.11    0.82
 -11  12  10    6.09    1.32
  -1  12 -13   15.84    1.73
   1  11 -13   16.84    1.84
   1 -12  13   16.72    2.04
  -1 -11  13   21.42    2.28
 -12   0  15    0.65    0.39
  12   0 -15    0.86    0.36
 -12  12 -12    0.42    0.24
 -12   0  12    1.20    0.50
  12 -12  12    0.23    0.30
  12   0 -12    1.03    0.48
  12 -12   9   -0.15    0.33
 -12   0   9    0.13    0.41
  12   0  -9    0.19    0.39
 -12  12  -6   76.14    5.28
  12 -12   6   68.78    5.56
  12   0  -6   78.15    5.93
 -12   0   6   80.92    6.42
 -12  12  -3   -0.04    0.14
  12 -12   3   -0.07    0.29
   0  12   3   -0.06    0.20
   0 -12  -3    0.29    0.39
  12 -12   0   68.35    5.14
   0  12   0   78.37    5.23
  12   0   0   69.69    5.57
   0 -12   0   54.76    5.33
 -12   0   0   61.01    5.59
 -12  12   0   68.19    4.84
  12   0   3   -0.10    0.33
 -12  12   3   -0.12    0.28
  12 -12  -3    0.08    0.25
 -12   0  -3    0.11    0.36
   0  12  -6   62.98    4.76
   0 -12   6   52.63    4.96
 -12  12   9    0.36    0.42
   0  12  -9   -0.30    0.36
   0 -12   9    0.21    0.39
  12 -12  -9   -0.23    0.50
   0 -12  12    1.46    0.52
   0  12 -12    1.28    0.47
   0 -12  15    0.68    0.32
   0  12 -15    0.70    0.27
   7   6 -14    7.98    1.21
  -7  13 -14    6.62    0.94
   7 -13  14    7.68    1.22
  -7  -6  14    9.20    1.50
  -7  -6  11   -0.13    0.44
 -13   7 -11    0.04    0.20
  -7  13 -11    0.26    0.20
   7   6 -11    0.09    0.38
  13  -6 -11   -0.19    0.38
 -13   6  11    0.13    0.45
   7 -13  11    0.18    0.33
  13  -7   8   62.27    4.75
   7   6  -8   71.65    5.19
 -13   7  -8   59.81    4.44
  -7  13  -8   60.96    4.59
 -13   6   8   66.77    5.50
   7 -13   8   68.85    5.22
  -6  13   8   59.24    4.80
   6 -13  -8   55.12    4.84
  -7  -6   8   65.92    5.65
 -13   7  -5    3.91    0.61
 -13   6   5    3.88    1.00
  -7  13  -5    3.87    0.70
  13  -7   5    3.77    0.73
   7   6  -5    3.58    0.84
  -7  -6   5    4.74    1.13
   7 -13   5    3.47    0.89
  13  -6  -5    5.79    1.10
  -7  -6   2  379.93   27.73
   7   6  -2  448.87   27.47
   6 -13  -2  395.77   27.22
 -13   6   2  389.65   27.33
   7 -13   2  423.82   27.51
   6   7   2  504.67   27.57
  -6  13   2  487.69   26.92
  -7  13  -2  429.06   26.97
 -13   7  -2  377.79   26.90
  13  -6  -2  390.58   27.48
  -6  -7  -2  428.30   28.00
  13  -7   2  391.59   27.19
 -13   7   1    1.41    0.48
  -6  -7   1    1.59    0.65
  13  -7  -1    1.25    0.59
  13  -6   1    1.17    0.52
  -7  13   1    1.18    0.36
  -6  13  -1    1.28    0.43
 -13   6  -1    1.10    0.43
   7 -13  -1    1.18    0.49
   6   7  -1    1.50    0.55
   7   6   1    1.39    0.55
   6 -13   1    1.10    0.52
   7 -13  -4  190.22   12.68
   7   6   4  216.91   12.87
   6   7  -4  203.45   12.98
  -7  13   4  206.36   12.33
  13  -6   4  165.33   12.59
 -13   6  -4  165.65   12.40
  -6  -7   4  190.01   13.52
  -7  -6  -4  174.24   13.06
   6 -13   7    0.10    0.34
  13  -7  -7   -0.11    0.37
 -13   6  -7   -0.04    0.22
   7 -13  -7    0.17    0.38
  13  -6   7   -0.06    0.21
   6   7  -7    0.09    0.35
 -13   7   7    0.12    0.44
  -6  -7   7   -0.14    0.45
  -6  13  -7    0.06    0.23
  -6  13 -10   57.54    4.37
   6   7 -10   60.31    4.78
   6 -13  10   59.99    4.84
  -6  -7  10   54.93    5.26
  13  -6  10   53.79    4.41
   6 -13  13    1.77    0.54
  -6  13 -13    0.71    0.32
   6   7 -13    0.38    0.36
  -6  -7  13    1.32    0.61
 -13   7  13    1.15    0.54
  13  -7 -13    0.58    0.41
  -6  -7  16    3.51    0.86
   6   7 -16    2.43    0.57
   8   5 -12    0.18    0.37
 -13   5  12    0.84    0.45
  13  -5 -12    0.28    0.45
   8 -13  12    0.32    0.38
 -13   8  -9    7.35    0.91
 -13   5   9    6.95    1.43
  13  -8   9    7.53    1.11
  13  -5  -9    8.44    1.36
  -8  -5   9    9.86    1.69
   8   5  -9    6.56    1.20
  13  -5  -6    3.24    0.89
   5 -13  -6    2.17    0.57
  -5  13   6    2.71    0.52
  -8  -5   6    3.33    0.95
  -8  13  -6    2.49    0.53
  13  -8   6    1.98    0.56
 -13   8  -6    2.92    0.51
 -13   5   6    2.21    0.81
   8   5  -6    2.77    0.74
   8 -13   6    2.00    0.63
  13  -5  -3    1.61    0.61
 -13   8  -3    1.27    0.37
  -8  -5   3    1.14    0.63
  -8  13  -3    1.94    0.46
  13  -8   3    1.38    0.46
 -13   5   3    1.43    0.63
   5   8   3    2.06    0.59
  -5  -8  -3    1.32    0.65
   8   5  -3    1.20    0.54
   8 -13   3    1.67    0.60
  -8  -5   0   24.35    2.83
 -13   8   0   25.99    2.46
   8 -13   0   24.29    2.61
   5 -13   0   23.77    2.69
 -13   5   0   26.82    2.72
   5   8   0   33.51    2.89
   8   5   0   31.73    2.84
  -8  13   0   28.72    2.37
  -5  13   0   33.78    2.55
  13  -5   0   31.11    2.97
  -5  -8   0   24.24    2.96
  13  -8   0   27.69    2.71
   8 -13  -3   26.57    2.53
  -8  -5  -3   25.52    2.81
 -13   5  -3   23.21    2.39
  -5  13  -3   25.78    2.39
   5 -13   3   28.65    2.90
 -13   8   3   27.32    2.74
  -8  13   3   29.68    2.29
   8   5   3   32.97    2.82
  13  -8  -3   27.10    2.86
  13  -5   3   27.73    2.73
  -5  -8   3   29.76    3.33
  13  -8  -6    1.70    0.67
  -8  13   6    2.33    0.56
 -13   5  -6    1.55    0.48
 -13   8   6    1.75    0.64
  13  -5   6    2.35    0.65
  -5  13  -6    2.16    0.57
   8 -13  -6    0.89    0.44
   5   8  -6    2.81    0.75
   5 -13   6    1.61    0.61
  -5  -8   6    2.04    0.85
   8 -13  -9    1.12    0.54
 -13   5  -9    0.84    0.40
   5 -13   9    1.35    0.54
 -13   8   9    1.22    0.67
  -8  13   9    0.86    0.49
  13  -5   9    1.03    0.40
  -5  13  -9    1.60    0.50
   5   8  -9    0.73    0.45
  -5  -8   9    1.42    0.70
  13  -8  -9    1.38    0.69
   5 -13  12    0.18    0.31
  -5  13 -12   -0.06    0.20
   5   8 -12    0.08    0.28
  -5  -8  12    0.12    0.40
  13  -8 -12    0.20    0.22
 -13   8  12    0.53    0.35
   5 -13  15    0.45    0.27
  -5  13 -15    0.84    0.29
  -9  13 -13   -0.05    0.22
 -13   4  13    0.36    0.27
   9   4 -13   -0.09    0.35
  13  -4 -13    0.93    0.39
   9 -13  13    0.08    0.18
  -9  -4  13    0.72    0.43
 -13   9 -10   17.99    1.65
  -9  13 -10   17.73    1.71
  13  -9  10   19.28    1.96
 -13   4  10   19.58    2.45
   9 -13  10   18.81    2.07
   9   4 -10   18.17    2.09
  13  -4 -10   16.75    2.09
  -9  -4  10   15.17    2.28
  -9  -4   7    8.16    1.51
  13  -9   7    8.05    1.15
 -13   9  -7    7.44    0.92
   9 -13   7    6.84    1.21
  -9  13  -7    8.54    1.04
  -4  13   7    8.34    1.06
 -13   4   7    9.47    1.58
  13  -4  -7    9.64    1.44
   9   4  -7   10.72    1.50
   4 -13  -7    6.24    1.01
  13  -9   4   64.51    5.37
   4 -13  -4   67.14    5.46
  -4  -9  -4   54.31    5.45
 -13   9  -4   70.43    5.13
  -9  13  -4   79.78    5.41
   9 -13   4   61.42    5.62
  -4  13   4   92.40    5.38
  13  -4  -4   75.20    5.96
 -13   4   4   66.92    5.98
   4   9   4   94.66    5.55
  -9  13  -1    0.37    0.25
 -13   9  -1    0.41    0.26
  -4  13   1    0.73    0.33
   4   9   1    0.75    0.44
  13  -9   1    0.45    0.33
  -4  -9  -1    0.12    0.40
   9 -13   1    0.31    0.35
  -9  -4   1   -0.12    0.42
 -13   4   1    0.47    0.38
   9   4  -1    0.18    0.35
   4 -13  -1    0.10    0.38
  13  -4  -1    1.15    0.52
 -13   9   2  137.31   10.10
   9 -13  -2  140.00   10.17
  -9  13   2  156.31    9.86
  -4  13  -2  175.20   10.31
   4   9  -2  158.33   10.41
 -13   4  -2  140.46   10.36
   4 -13   2  152.82   10.75
   9   4   2  153.83   10.46
  -4  -9   2  129.15   10.67
  13  -4   2  140.40   10.52
  13  -9  -2  133.85   10.39
 -13   4  -5   22.81    2.29
 -13   9   5   22.84    2.56
  -9  13   5   23.94    2.25
  -4  13  -5   25.43    2.37
   4   9  -5   27.96    2.60
   4 -13   5   22.65    2.56
   9   4   5   33.75    2.66
  -9  -4  -5   23.45    2.68
  13  -9  -5   26.89    2.83
  -4  -9   5   24.41    2.86
  13  -4   5   23.48    2.51
   9 -13  -5   24.42    2.46
 -13   4  -8   37.86    3.07
   4 -13   8   34.03    3.31
  -9  13   8   30.97    3.26
  -4  13  -8   35.74    3.03
   4   9  -8   40.81    3.33
  13  -9  -8   33.94    3.52
 -13   9   8   35.55    3.63
   9 -13  -8   33.66    3.41
  -4  -9   8   37.10    3.75
  13  -4   8   38.80    3.34
  -4  13 -11    0.18    0.27
   4 -13  11    0.53    0.40
  -4  -9  11    0.37    0.49
   4   9 -11    0.15    0.26
  13  -9 -11    0.11    0.37
   4 -13  14    2.13    0.57
  -4  -9  14    1.84    0.61
   4   9 -14    0.97    0.45
  10   3 -14    9.80    1.54
  10 -13  14   10.00    1.43
 -10  -3  14   11.04    2.07
 -10  13 -14   10.29    1.17
 -10  13 -11    1.11    0.37
 -13   3  11    0.78    0.55
  10 -13  11    1.01    0.54
  13  -3 -11    1.42    0.63
  13 -10   8  108.35    7.91
 -13  10  -8  107.45    7.56
 -10  13  -8  117.87    7.68
  10 -13   8  106.17    8.13
  13  -3  -8  118.44    8.31
 -13   3   8  118.53    8.76
  -3  13   5    0.94    0.30
 -10  13  -5    1.20    0.44
 -13   3   5    0.35    0.47
   3 -13  -5    1.27    0.44
 -10  -3   5    0.87    0.61
  10 -13   5    0.99    0.49
  10   3  -5    0.54    0.45
 -13  10  -5    0.69    0.26
  13  -3  -5    0.81    0.50
  -3  13   2  531.16   27.20
 -10  13  -2  414.84   26.78
 -13  10  -2  400.32   26.70
   3 -13  -2  440.66   27.61
  10   3  -2  415.60   27.40
  -3 -10  -2  358.13   27.44
  13  -3  -2  424.26   27.57
 -13   3   2  387.76   27.63
   3  10   2  546.18   27.53
  10 -13   2  358.83   27.07
  13 -10   2  394.23   26.99
 -13   3  -1   20.56    2.43
  10 -13  -1   22.72    2.26
 -10  13   1   21.35    1.95
  -3  13  -1   27.64    2.38
 -13  10   1   23.24    2.15
 -10  -3  -1   18.82    2.54
   3  10  -1   27.47    2.48
   3 -13   1   26.58    2.74
  10   3   1   24.59    2.50
  -3 -10   1   21.36    2.72
  13  -3   1   18.50    2.37
  13 -10  -1   23.86    2.34
 -10  -3  -4  337.75   22.42
 -10  13   4  345.18   21.67
 -13   3  -4  325.72   22.07
  10   3   4  377.36   22.21
  13  -3   4  326.41   22.21
  10 -13  -4  307.07   21.74
 -13   3  -7   -0.07    0.23
  13  -3   7    0.29    0.40
 -13  10   7    0.11    0.39
   3 -13   7    0.26    0.35
  -3  13  -7    0.06    0.23
  13 -10  -7    0.66    0.52
  -3 -10   7    0.26    0.51
   3  10  -7    0.39    0.36
 -10  13   7    0.37    0.39
  10 -13  -7    0.11    0.40
 -10  -3  -7    0.19    0.36
  10   3   7    0.20    0.31
  -3  13 -10   52.58    4.24
   3  10 -10   60.89    4.57
   3 -13  10   51.14    4.55
 -13  10  10   56.57    5.17
  13 -10 -10   54.42    4.95
  -3 -10  10   67.32    5.34
   3 -13  13    0.94    0.38
  -3  13 -13    0.29    0.26
  11   2 -15    0.92    0.39
 -11  -2  15    0.85    0.46
 -11  -2  12    0.37    0.28
 -13  11 -12    0.22    0.26
 -13   2  12    0.72    0.39
  13 -11  12    0.50    0.30
  11   2 -12    0.26    0.35
  13  -2 -12    0.28    0.40
 -13  11  -9    1.15    0.36
 -11  13  -9    1.11    0.42
 -11  -2   9    0.24    0.48
  13 -11   9    0.91    0.42
  11 -13   9    1.20    0.51
  11   2  -9    0.68    0.48
 -13   2   9    1.09    0.60
  13  -2  -9    0.93    0.51
 -13   2   6    0.12    0.37
  -2  13   6    0.06    0.16
   2  11   6    0.04    0.06
 -11  13  -6    0.10    0.20
   2 -13  -6    0.18    0.25
  -2 -11  -6    0.15    0.10
  13 -11   6    0.27    0.33
 -11  -2   6    0.52    0.56
  11 -13   6    0.23    0.30
  11   2  -6    0.47    0.41
  13  -2  -6   -0.10    0.37
  13  -2  -3   -0.21    0.36
  -2 -11  -3    0.10    0.36
 -13  11  -3    0.12    0.19
 -11  13  -3    0.04    0.20
  -2  13   3    0.55    0.31
   2  11   3    0.26    0.31
  13 -11   3    0.13    0.28
 -13   2   3    0.23    0.38
  11 -13   3   -0.14    0.26
   2 -13  -3    0.59    0.45
 -11  13   0   72.01    5.34
  -2  13   0   94.34    5.95
   2  11   0   94.84    6.09
 -11  -2   0   65.73    6.15
   2 -13   0   81.36    6.32
  11   2   0   72.08    5.94
  -2 -11   0   62.04    6.01
  13  -2   0   78.48    6.13
  11 -13   0   71.64    5.69
   2 -13   3    0.39    0.41
 -11  13   3    0.78    0.31
  -2  13  -3    0.47    0.33
 -11  -2  -3    0.58    0.48
  13  -2   3    0.29    0.37
  11 -13  -3    0.76    0.40
   2  11  -3    0.51    0.42
 -13   2  -3    0.49    0.43
  -2 -11   3    0.53    0.46
  11   2   3    1.42    0.61
 -11  13   6    0.08    0.27
   2 -13   6   -0.20    0.32
  11 -13  -6    0.11    0.37
 -11  -2  -6   -0.11    0.46
  13  -2   6    0.52    0.46
 -13  11   6   -0.10    0.31
 -13   2  -6    0.09    0.34
  -2 -11   6    0.40    0.50
  -2  13  -6   -0.07    0.27
  13 -11  -6    0.67    0.49
   2  11  -6    0.17    0.34
  11   2   6    0.27    0.45
   2 -13   9    0.48    0.47
  -2 -11   9    0.99    0.61
  -2  13  -9    0.78    0.39
   2  11  -9    0.97    0.47
  13 -11  -9    0.58    0.48
 -13  11   9    1.25    0.74
  11 -13  -9    0.57    0.50
  -2 -11  12    0.67    0.51
  -2  13 -12    0.34    0.29
   2  11 -12    0.51    0.33
   2 -13  15    0.41    0.24
  -2  13 -15    0.66    0.25
   2  11 -15    0.70    0.28
 -12  13 -13    0.43    0.24
  12 -13  13    0.82    0.33
  12   1 -13    1.13    0.42
 -12  -1  13    0.87    0.43
 -13  12 -10    1.07    0.34
 -12  13 -10    0.96    0.32
 -12  -1  10    0.73    0.58
  13 -12  10    0.66    0.37
 -13   1  10    0.38    0.48
  12 -13  10    0.59    0.39
  12   1 -10    1.13    0.60
  13  -1 -10    1.02    0.51
 -13  12  -7    1.33    0.38
 -12  13  -7    1.29    0.38
  13 -12   7    0.86    0.42
  12 -13   7    0.97    0.48
 -12  -1   7    0.83    0.66
  12   1  -7    1.52    0.62
  13  -1  -7    1.51    0.61
 -13   1   7    0.77    0.59
   1  12   4   59.62    3.69
  13 -12   4   39.07    3.60
 -12  13  -4   41.97    3.39
  12 -13   4   34.00    3.48
 -13  12  -4   40.64    3.31
   1 -13  -4   50.96    4.10
  -1 -12  -4   48.56    4.00
 -12  -1   4   44.87    4.36
 -13   1   4   39.77    4.17
  12   1  -4   44.84    3.98
  13  -1  -4   44.14    4.03
   1 -13  -1    5.62    1.25
 -13  12  -1    3.90    0.64
 -12  13  -1    3.76    0.64
  -1 -12  -1    4.57    1.08
 -12  -1   1    3.81    1.04
  -1  13   1    6.52    1.03
  13 -12   1    4.44    0.84
   1  12   1    4.74    0.86
  12 -13   1    4.36    0.85
 -13   1   1    4.27    1.11
  12   1  -1    4.12    0.97
  -1 -12   2   23.24    2.79
   1 -13   2   17.06    2.49
  -1  13  -2   28.10    2.48
   1  12  -2   32.19    2.75
 -13  12   2   26.29    2.37
 -12  -1  -2   24.05    2.87
  12   1   2   25.02    2.77
  13  -1   2   28.02    2.88
 -13   1  -2   24.72    2.85
  13 -12  -2   26.27    2.52
  13  -1   5    7.07    1.32
  13 -12  -5    4.74    1.12
   1 -13   5    6.73    1.26
  -1  13  -5    6.59    1.05
   1  12  -5    6.29    1.09
  -1 -12   5    6.27    1.35
 -12  -1  -5    5.30    1.19
 -13   1  -5    6.20    1.22
  -1  13  -8   14.31    1.62
   1  12  -8   14.18    1.68
   1 -13   8   11.88    1.76
 -12  13   8   11.71    1.82
  -1 -12   8   14.91    2.06
  13 -12  -8   11.56    1.84
  12 -13  -8   13.88    1.97
 -13  12   8   11.05    1.85
   1 -13  11    0.47    0.47
  -1 -12  11    0.10    0.35
   1  12 -11    0.07    0.34
  -1  13 -11    0.20    0.26
 -13  13 -11   -0.04    0.17
  13 -13  11   -0.07    0.19
  13   0 -11   -0.10    0.37
 -13  13  -8   70.81    5.00
  13   0  -8   79.92    5.79
 -13   0   8   75.07    6.31
  13 -13   8   61.17    5.28
 -13  13  -5    0.04    0.17
   0  13   5    0.13    0.21
  13 -13   5    0.07    0.30
   0 -13  -5   -0.42    0.38
  13   0  -5    0.39    0.44
 -13   0   5   -0.13    0.41
   0 -13  -2  349.13   21.73
 -13   0   2  281.73   21.32
 -13  13  -2  280.84   20.27
  13 -13   2  305.15   20.68
  13   0   1   -0.33    0.50
  13 -13  -1    0.07    0.31
   0 -13   1    0.11    0.32
 -13  13   1   -0.04    0.16
   0  13  -1    0.23    0.30
 -13   0  -1   -0.12    0.32
 -13  13   4  178.18   12.44
  13   0   4  213.68   13.26
 -13   0  -4  172.42   13.08
  13 -13  -4  180.72   12.79
  13   0   7    0.11    0.48
  13 -13  -7    0.12    0.38
 -13  13   7    0.10    0.36
 -13   0  -7    0.12    0.49
  13 -13 -10   55.80    4.95
 -13  13  10   46.87    4.86
   0 -13  13    0.55    0.30
  -7  14   0  226.48   12.35
   7 -14   0  175.93   12.58
 -14   7   0  148.70   12.19
   7   7   0  204.36   12.73
  14  -7   0  174.38   12.70
  -7  -7   0  158.36   12.93
  -7  -7   3    0.65    0.51
 -14   7   3    0.85    0.52
  14  -7  -3    1.38    0.56
  -7  14   3    0.94    0.32
  14  -7   3    0.48    0.38
   7 -14  -3    0.69    0.40
   7   7   3    0.46    0.47
   7   7  -3    0.72    0.43
  -7  -7  -3    0.53    0.50
  -7  14   6   89.50    5.66
  -7  14  -6   79.24    5.55
   7 -14   6   77.47    6.02
   7   7  -6   88.22    6.13
  14  -7  -6   85.28    6.30
 -14   7   6   82.50    6.38
   7   7   6   70.60    5.25
   7 -14  -6   79.52    5.81
  -7  -7   6   79.41    6.60
 -14   7  -9    0.04    0.17
  14  -7   9    0.13    0.29
  -7  14  -9    0.43    0.29
   7   7  -9    0.55    0.46
  -7  -7   9    0.14    0.37
  14  -7  -9    0.11    0.37
   7 -14   9    0.56    0.42
  -7  14 -12    5.18    0.81
   7   7 -12    7.15    1.15
  -7  -7  12    4.95    1.24
 -14   7  12    6.27    1.27
   7 -14  12    6.41    1.16
  -7  -7  15    0.58    0.35
   7   7 -15    0.57    0.27
  -8  14 -13    2.24    0.50
   8   6 -13    2.65    0.70
 -14   6  13    2.85    0.83
  -8  -6  13    4.17    0.97
  14  -6 -13    3.01    0.73
   8 -14  13    2.44    0.64
 -14   6  10    0.26    0.48
 -14   8 -10    0.08    0.16
  14  -8  10    0.20    0.35
   8   6 -10    0.10    0.34
  14  -6 -10    0.59    0.43
  -8  -6  10    0.28    0.56
  14  -6  -7    2.47    0.83
  -8  -6   7    2.06    0.85
 -14   8  -7    2.60    0.51
  -8  14  -7    3.41    0.62
  14  -8   7    2.32    0.61
 -14   6   7    2.54    0.86
   8   6  -7    3.12    0.80
   8 -14   7    1.71    0.65
  14  -6  -4    6.97    1.30
  -8  -6   4    6.04    1.34
   6 -14  -4    5.41    1.03
   8 -14   4    6.03    1.15
   6   8   4    6.99    1.08
  -6  14   4    8.31    0.94
 -14   6   4    6.39    1.26
   8   6  -4    6.86    1.22
  -6  -8  -4    5.56    1.25
  -8  14  -4    6.40    0.95
 -14   8  -1   53.47    4.67
  -8  14  -1   69.30    4.77
  -6  14   1   78.90    4.89
   8 -14   1   55.76    4.97
   6 -14  -1   55.92    5.00
  -8  -6   1   44.09    5.08
   6   8   1   76.22    5.30
   8   6  -1   64.33    5.18
  -6  -8  -1   70.16    5.81
  14  -8   1   57.84    4.94
 -14   6  -2    6.38    1.10
  14  -8  -2    8.21    1.45
  -6  14  -2   10.33    1.18
   6 -14   2    6.59    1.28
   6   8  -2   10.67    1.53
 -14   8   2    7.80    1.32
  -8  14   2    8.41    1.03
   8 -14  -2    8.10    1.24
  -6  -8   2    5.39    1.39
  14  -8  -5   -0.10    0.38
  -8  14   5    0.20    0.26
  14  -6   5    0.81    0.43
   8 -14  -5    0.55    0.37
  -6  14  -5    0.34    0.27
 -14   8   5    0.64    0.42
   6   8  -5    0.75    0.43
   8   6   5    0.53    0.39
 -14   6  -5    0.59    0.32
  -6  -8   5    0.31    0.57
   6 -14   5    0.99    0.52
  -8  -6  -5    0.23    0.45
  14  -8  -8    0.22    0.42
   8 -14  -8   -0.10    0.35
  14  -6   8    0.07    0.27
 -14   8   8    0.37    0.43
   6   8  -8    0.09    0.32
  -6  -8   8    1.05    0.60
  -8  14   8   -0.09    0.34
 -14   8  11    7.63    1.43
   6   8 -11    6.94    1.15
  -6  -8  11    7.03    1.43
  14  -8 -11    6.26    1.22
  -6  14 -14    1.44    0.36
  -6  -8  14    1.18    0.50
   6   8 -14    1.24    0.40
   6 -14  14    0.87    0.37
  -9  14 -14    1.21    0.32
 -14   5  14    2.33    0.71
   9   5 -14    1.31    0.44
  -9  -5  14    1.55    0.60
  14  -5 -14    1.84    0.56
   9 -14  14    1.72    0.49
 -14   9 -11   13.45    1.32
  -9  14 -11   11.50    1.31
 -14   5  11   12.15    2.03
  14  -9  11   12.68    1.54
   9 -14  11   11.42    1.61
   9   5 -11   15.92    1.86
  14  -5 -11   11.31    1.68
  -9  -5  11   10.76    1.96
  -9  -5   8    0.13    0.37
 -14   9  -8    0.20    0.20
   9   5  -8   -0.09    0.41
  14  -9   8   -0.13    0.34
  -9  -5   5   34.61    3.69
 -14   9  -5   37.27    2.88
  -9  14  -5   38.41    3.04
   5   9   5   42.60    3.02
   9 -14   5   36.54    3.50
  14  -5  -5   40.56    3.70
   9   5  -5   43.60    3.65
 -14   5   5   38.66    3.82
  14  -9   5   38.44    3.17
  -9  -5   2   12.77    2.03
 -14   5   2   16.67    2.14
  -5  14   2   18.99    1.78
   5 -14  -2   15.96    1.97
   5   9   2   20.52    2.06
   9   5  -2   18.21    2.10
  14  -5  -2   14.69    2.06
  -5  -9  -2   14.17    2.21
   9 -14  -1   68.01    5.47
  -5  14  -1   74.88    5.28
 -14   5  -1   61.14    5.50
   5 -14   1   64.46    5.61
  -9  -5  -1   56.87    5.67
   5   9  -1   78.25    5.69
  -9  14   1   80.28    5.20
   9   5   1   73.95    5.65
  14  -5   1   66.64    5.73
  -5  -9   1   70.01    6.15
   5 -14   4    1.52    0.62
 -14   5  -4    0.82    0.41
  14  -9  -4    1.96    0.75
  -9  14   4    1.82    0.44
   9 -14  -4    2.70    0.67
  -5  14  -4    1.94    0.55
  14  -5   4    1.24    0.56
  -9  -5  -4    1.97    0.76
 -14   9   4    1.69    0.65
  -5  -9   4    1.42    0.74
   9   5   4    1.81    0.62
  -9  14   7   40.81    3.74
 -14   5  -7   42.18    3.59
  -5  14  -7   46.85    3.73
   5   9  -7   46.25    3.91
   5 -14   7   49.27    4.10
  14  -9  -7   47.92    4.25
  -5  -9   7   41.41    4.27
   9 -14  -7   45.67    4.12
 -14   9   7   44.83    4.27
  14  -5   7   46.34    3.93
   5 -14  10    0.09    0.32
 -14   9  10   -0.39    0.42
  -5  14 -10    0.13    0.28
   5   9 -10   -0.08    0.34
  -5  -9  10   -0.25    0.55
  14  -9 -10    0.11    0.41
  -5  -9  13    5.72    1.16
  10   4 -15    1.37    0.44
 -10  14 -12    1.02    0.39
 -14   4  12    0.91    0.46
  10   4 -12    0.71    0.53
  10 -14  12    1.17    0.54
  14  -4 -12    1.05    0.56
 -14  10  -9    0.04    0.21
 -10  -4   9   -0.13    0.41
  14 -10   9    0.13    0.25
  10   4  -9    0.09    0.36
  14  -4  -9   -0.10    0.38
 -14   4   9   -0.13    0.41
  14 -10   6   63.10    5.14
  -4  14   6   83.37    4.91
 -10  -4   6   59.24    5.70
 -14  10  -6   61.37    4.82
 -10  14  -6   73.79    5.08
  10 -14   6   66.45    5.39
  10   4  -6   76.23    5.69
 -14   4   6   58.62    5.68
  14  -4  -6   70.98    5.66
   4 -14  -6   64.79    5.06
  14  -4  -3    3.42    0.93
 -14  10  -3    3.10    0.57
  -4 -10  -3    2.83    0.87
  -4  14   3    3.24    0.63
 -10  14  -3    3.31    0.61
  14 -10   3    3.26    0.70
   4  10   3    5.40    0.94
   4 -14  -3    2.91    0.82
  10 -14   3    2.92    0.79
 -14   4   3    2.42    0.83
 -10  -4   0   93.01    7.46
 -14   4   0   71.61    6.67
 -14  10   0   84.09    6.37
   4  10   0  103.33    6.85
 -10  14   0   99.47    6.34
  -4  14   0   99.27    6.49
  10 -14   0   79.39    6.56
   4 -14   0   81.25    6.84
  10   4   0   94.99    6.91
  -4 -10   0   89.96    7.34
  14  -4   0   82.66    6.86
  14 -10   0   84.70    6.55
   4 -14   3    3.17    0.90
 -14   4  -3    2.92    0.78
  14 -10  -3    2.22    0.76
  10 -14  -3    3.81    0.81
  -4  14  -3    3.33    0.74
 -14  10   3    2.22    0.67
   4  10  -3    2.62    0.74
  -4 -10   3    2.56    0.91
 -10  14   3    3.44    0.60
  14  -4   3    3.40    0.88
 -10  -4  -6   66.57    5.69
 -10  14   6   71.09    5.30
  -4  14  -6   68.97    5.19
 -14  10   6   67.77    5.66
   4  10  -6   76.53    5.46
   4 -14   6   64.01    5.46
  10   4   6   81.61    5.51
 -14   4  -6   57.10    5.11
  -4 -10   6   66.58    6.02
  14  -4   6   68.08    5.58
  10 -14  -6   68.44    5.59
  10 -14  -9    0.22    0.36
  -4  14  -9    0.13    0.22
 -10  14   9    0.33    0.48
  -4 -10   9   -0.13    0.42
   4  10  -9    0.16    0.31
 -14  10   9    0.13    0.54
   4 -14   9    0.09    0.32
 -14  10  12    2.89    0.85
   4 -14  12    2.08    0.72
  -4  14 -12    2.95    0.68
  -4 -10  12    2.76    0.95
   4  10 -12    3.13    0.74
  14 -10 -12    2.72    0.76
   4 -14  15    0.84    0.35
  -4 -10  15    1.26    0.48
  -4  14 -15    0.75    0.28
   4  10 -15    0.82    0.32
 -11  -3  13    0.94    0.47
 -11  14 -13    0.73    0.31
  11   3 -13    1.85    0.57
  11 -14  13    1.30    0.47
  14  -3 -13    1.43    0.49
 -14  11 -10    0.33    0.25
 -11  14 -10    0.55    0.28
  11 -14  10   -0.08    0.34
 -14   3  10    0.14    0.41
  14 -11  10    0.13    0.34
  14 -11   7    0.66    0.38
  11 -14   7    1.08    0.47
 -14  11  -7    0.47    0.23
  14 -11   4   28.25    2.60
 -11  14  -4   26.84    2.35
 -11  -3   4   26.87    3.18
  -3 -11  -4   25.11    2.90
 -14  11  -4   27.09    2.30
  11   3  -4   33.18    3.04
  11 -14   4   24.12    2.64
 -14   3   4   25.38    3.04
  14  -3  -4   32.19    3.11
 -11  14  -1   19.05    1.75
  11 -14   1   17.25    1.97
  -3  14   1   23.58    2.02
 -11  -3   1   20.13    2.57
   3  11   1   23.88    2.29
   3 -14  -1   17.18    2.18
  11   3  -1   18.40    2.17
 -14  11  -1   15.01    1.62
  -3 -11  -1   15.16    2.23
  14 -11   1   17.17    1.87
 -14   3  -2    8.83    1.51
  -3  14  -2   15.49    1.68
 -11  -3  -2   10.25    1.81
   3  11  -2   14.62    1.72
   3 -14   2   10.99    1.72
  11   3   2    9.56    1.57
 -14  11   2   10.88    1.40
  -3 -11   2   11.59    1.96
  14  -3   2   12.77    1.78
  14 -11  -2   10.19    1.56
   3 -14   5    0.30    0.38
  -3  14  -5    0.34    0.31
  14 -11  -5    0.23    0.40
  -3 -11   5    0.41    0.50
   3  11  -5    0.25    0.31
 -14   3  -5    0.38    0.41
  14  -3   5   -0.11    0.54
  11   3   5    0.56    0.46
 -11  -3  -5    0.75    0.59
  14 -11  -8    8.41    1.60
 -14  11   8    9.32    1.65
  -3  14  -8    9.33    1.21
   3  11  -8    9.10    1.32
   3 -14   8    7.79    1.33
  -3 -11   8    7.95    1.55
 -14   3  -8    7.22    1.36
  14  -3   8   10.81    1.65
   3 -14  11    1.14    0.49
 -14  11  11    0.68    0.40
  -3 -11  11    0.59    0.52
  -3  14 -11    0.72    0.32
   3  11 -11    0.32    0.38
  14 -11 -11    0.23    0.40
  -3 -11  14    0.87    0.39
   3  11 -14    1.11    0.37
 -12  -2  14    3.17    0.87
  12   2 -14    2.35    0.62
 -14  12 -11   16.24    1.50
 -12  14 -11   13.63    1.44
  12   2 -11   16.26    2.00
  14  -2 -11   16.07    1.96
  14 -12  11   12.59    1.66
 -12  -2  11   11.24    2.07
 -14   2  11   11.54    2.01
 -12  -2   8    1.55    0.73
  12   2  -8    2.63    0.80
  14  -2  -8    3.75    0.89
 -14   2   8    2.61    0.92
 -12  14  -5   39.12    3.26
  14 -12   5   37.70    3.49
 -14  12  -5   36.84    3.19
   2 -14  -5   48.45    3.76
  -2  14   5   61.19    3.54
  12 -14   5   33.36    3.49
   2  12   5   55.49    3.45
 -12  -2   5   43.28    4.38
  -2 -12  -5   55.47    3.94
 -14   2   5   37.73    4.10
  12   2  -5   46.21    3.96
  14  -2  -5   41.64    3.92
  14  -2  -2   -0.11    0.44
  -2 -12  -2    0.21    0.42
 -14  12  -2    0.21    0.21
 -12  14  -2    0.28    0.23
  -2  14   2    0.13    0.31
  14 -12   2    0.07    0.25
   2  12   2   -0.08    0.36
  12 -14   2    0.07    0.26
 -14   2   2    0.24    0.39
   2 -14  -2    0.11    0.41
  12   2  -2    0.39    0.44
 -12  -2   2    0.26    0.42
  12 -14  -1  107.57    7.86
 -14  12   1  102.33    7.62
 -12  14   1  109.20    7.52
   2  12  -1  129.70    8.27
 -12  -2  -1  104.88    8.53
  -2  14  -1  139.67    8.23
   2 -14   1   99.77    8.32
  12   2   1  112.08    8.29
  -2 -12   1   95.53    8.32
  14  -2   1  110.60    8.35
 -14   2  -1   96.21    8.31
  14 -12  -1  111.90    7.90
 -14   2  -4   12.47    1.92
 -12  14   4   15.36    1.68
  -2  14  -4   14.22    1.63
   2  12  -4   17.38    1.92
 -12  -2  -4   13.10    2.03
   2 -14   4    9.60    1.69
  12   2   4   15.64    2.02
  -2 -12   4   12.94    2.10
  14  -2   4   13.67    1.94
 -14  12   4   13.44    1.67
  14 -12  -4   15.19    2.01
  12 -14  -4   13.27    1.74
 -14  12   7   31.83    3.44
  -2  14  -7   35.23    3.04
 -14   2  -7   32.49    3.44
   2  12  -7   37.08    3.26
 -12  14   7   35.06    3.46
   2 -14   7   32.52    3.28
  -2 -12   7   41.85    3.93
  14 -12  -7   34.13    3.57
  14  -2   7   39.77    3.74
  12 -14  -7   36.17    3.65
  14 -12 -10    4.10    1.06
   2 -14  10    2.65    0.78
  -2 -12  10    4.27    1.09
  -2  14 -10    2.94    0.65
   2  12 -10    2.46    0.68
 -14  12  10    3.37    1.01
   2 -14  13    5.35    1.15
  -2  14 -13    7.80    1.06
   2  12 -13    9.51    1.27
 -13  14 -12    0.46    0.29
 -13  -1  12    1.27    0.53
 -14  13 -12    0.13    0.23
 -14   1  12    0.49    0.32
  14 -13  12    1.24    0.37
  13 -14  12    0.94    0.34
  13   1 -12    0.92    0.45
  14  -1 -12    0.39    0.37
 -13  14  -9    0.52    0.27
 -14  13  -9    0.69    0.30
 -13  -1   9    0.84    0.55
  14 -13   9    0.46    0.37
  13 -14   9    0.36    0.36
 -14   1   9    1.70    0.79
  13   1  -9    0.66    0.51
  14  -1  -9    0.29    0.34
  14 -13   6   15.06    1.69
 -14  13  -6   13.72    1.39
 -14  13  -3    0.42    0.24
 -14   1   3    0.77    0.58
  -1  14   3    0.67    0.41
  14 -13   3    0.27    0.33
  13 -14   3    0.43    0.37
 -13  14  -3    0.52    0.26
   1 -14  -3    0.57    0.54
  14  -1  -3    0.42    0.39
 -13  -1   3    0.40    0.49
  13 -14   0   42.44    3.62
 -14  13   0   42.21    3.28
 -13  14   0   41.72    3.30
   1 -14   0   40.68    4.13
  -1 -13   0   36.12    3.97
  13   1   0   39.92    3.94
   1  13   0   47.94    3.78
  14 -13   0   40.19    3.52
 -14  13   3    8.78    1.23
  -1  14  -3    8.97    1.26
   1  13  -3    9.67    1.42
   1 -14   3    7.99    1.47
 -13  -1  -3    8.71    1.68
  -1 -13   3    7.61    1.63
  13   1   3   11.08    1.67
 -13  14   3   10.71    1.28
  14  -1   3    9.06    1.55
  14 -13  -3    9.62    1.46
  13 -14  -3    7.98    1.28
 -14   1  -3    7.65    1.52
 -14  13   6   22.81    2.61
 -13  -1  -6   21.89    2.77
 -13  14   6   21.16    2.49
  13   1   6   24.51    2.70
  14  -1   6   23.41    2.71
  14 -13  -6   18.99    2.53
  13 -14  -6   23.29    2.71
 -14   1  -6   19.74    2.63
   1 -14   9    1.21    0.61
  13 -14  -9    2.13    0.80
 -13  14   9    1.16    0.68
  -1 -13   9    1.40    0.66
  -1  14  -9    0.81    0.39
   1  13  -9    1.18    0.49
   1 -14  12    0.70    0.46
  -1 -13  12    0.63    0.34
  -1  14 -12    0.42    0.29
   1  13 -12    0.27    0.24
 -14   0  10    3.95    1.11
  14   0 -10    6.57    1.19
  14 -14   7    0.14    0.30
 -14   0   7    0.29    0.54
  14   0  -7    0.19    0.36
  14 -14   4   30.86    3.01
   0 -14  -4   41.41    3.76
 -14   0   4   30.37    3.57
 -14  14  -4   31.12    2.71
  14   0  -4   34.45    3.37
   0 -14  -1    0.26    0.54
 -14   0   1   -0.13    0.49
 -14  14  -1    0.04    0.20
   0  14   1   -0.09    0.40
  14 -14   1    0.07    0.23
  14   0  -1   -0.11    0.40
   0  14  -2   81.27    5.60
   0 -14   2   56.38    5.67
 -14   0  -2   65.64    6.02
  14   0   2   72.79    5.96
 -14  14   2   71.70    5.25
  14 -14  -2   68.63    5.42
  14   0   5    0.13    0.47
 -14  14   5   -0.08    0.29
  14 -14  -5   -0.11    0.37
 -14   0  -5   -0.14    0.44
  14 -14  -8    7.02    1.46
   0  14  -8    7.09    1.13
   0 -14   8    8.00    1.48
 -14  14   8    7.05    1.44
   8   7 -14    0.97    0.36
  -8  -7  14    1.18    0.50
   8 -15  14    1.29    0.42
   8 -15  11    9.18    1.38
  -8  15 -11    8.92    1.10
   8   7 -11   10.07    1.46
  -8  -7  11    8.27    1.68
 -15   8  -8    1.40    0.43
  15  -8   8    0.83    0.43
  -8  15  -8    1.51    0.45
 -15   7   8    1.14    0.65
   8   7  -8    1.54    0.60
   8 -15   8    0.86    0.47
  -8  -7   8    0.74    0.65
 -15   8  -5    5.18    0.88
  15  -7  -5    5.68    1.21
 -15   7   5    4.78    1.18
  -8  -7   5    4.86    1.24
  -8  15  -5    5.44    0.87
   7   8   5    9.37    1.25
  15  -8   5    5.15    0.96
  -7  15   5    7.27    0.90
  -7  -8  -5    5.28    1.23
   8   7  -5    5.99    1.12
   8 -15   5    3.88    0.95
   7 -15  -5    6.24    1.05
  -7  15   2    2.78    0.58
  15  -7  -2    1.76    0.69
 -15   7   2    2.11    0.70
  15  -8   2    1.31    0.54
  -8  -7   2    2.44    0.90
  -8  15  -2    2.03    0.55
   7 -15  -2    2.96    0.78
 -15   8  -2    1.86    0.56
   8   7  -2    2.27    0.69
   8 -15   2    1.82    0.66
  -7  -8  -2    1.35    0.83
   8 -15  -1   62.93    5.34
   7   8  -1   74.67    5.69
   8   7   1   76.90    5.67
 -15   7  -1   65.66    5.27
 -15   8   1   64.13    5.44
  -8  15   1   77.46    5.08
  15  -8  -1   62.48    5.58
  15  -7   1   63.51    5.53
  -7  -8   1   65.98    6.14
  -8  -7  -1   60.59    5.88
   8 -15  -4   11.48    1.52
  -8  15   4   12.92    1.30
 -15   8   4    9.23    1.61
  -7  15  -4   10.85    1.30
   7 -15   4   10.43    1.57
   8   7   4   15.01    1.80
   7   8  -4   12.13    1.68
  15  -8  -4    9.78    1.61
  15  -7   4    8.92    1.45
  -8  -7  -4   15.06    2.26
 -15   7  -4   10.10    1.34
  -8  15   7    4.47    0.88
 -15   7  -7    3.83    0.78
  -7  15  -7    4.05    0.72
   8 -15  -7    3.29    0.90
  15  -7   7    3.53    0.80
   7 -15   7    4.05    0.91
 -15   8  10    1.05    0.60
  15  -8 -10    0.86    0.55
   7 -15  13    4.58    0.92
  -7  15 -13    3.53    0.68
   7   8 -13    5.49    0.93
 -15   8  13    2.95    0.91
  15  -8 -13    4.48    0.92
  -9  15 -12    0.19    0.21
   9 -15  12    0.39    0.23
  15  -6 -12    0.58    0.31
  15  -9   9   11.72    1.52
   9 -15   9   13.61    1.72
   9   6  -9   16.35    1.93
 -15   6   9   14.05    2.12
  -9  15  -9   12.93    1.39
  15  -6  -9   13.17    1.85
 -15   9  -9   12.46    1.33
  -9  -6   9   16.75    2.33
  15  -6  -6    0.92    0.64
  -9  -6   6    0.66    0.58
  -6  15   6    1.20    0.43
  15  -9   6    0.69    0.38
 -15   9  -6    1.28    0.35
   6 -15  -6    1.25    0.48
 -15   6   6    0.62    0.52
   9   6  -6    1.30    0.57
   9 -15   6    1.00    0.54
  -9  15  -6    1.33    0.41
  -9  -6   3   15.13    2.22
 -15   9  -3   12.72    1.55
  -6  15   3   19.25    1.70
   6 -15  -3   12.12    1.69
   9 -15   3   12.57    1.80
   6   9   3   19.90    2.05
   9   6  -3   17.29    2.07
  -9  15  -3   15.57    1.64
  15  -6  -3   15.76    2.07
  -6  -9  -3   14.87    2.28
  15  -9   3   13.67    1.67
 -15   6   3   13.74    2.01
 -15   9   0   14.57    1.85
  -6  15   0   22.62    1.99
 -15   6   0   15.99    2.08
   6 -15   0   18.73    2.28
  -9  -6   0   16.03    2.34
   6   9   0   22.32    2.33
   9   6   0   23.01    2.42
  15  -6   0   17.15    2.22
  -6  -9   0   15.30    2.43
  15  -9   0   17.88    2.15
   9 -15  -3   48.38    4.10
  -9  15   3   53.73    3.79
  -6  15  -3   48.85    3.89
 -15   9   3   42.22    4.22
   6 -15   3   43.90    4.19
   6   9  -3   58.61    4.50
  15  -9  -3   47.22    4.41
  -6  -9   3   47.18    4.73
  15  -9  -6    2.29    0.78
 -15   6  -6    1.12    0.48
  -9  15   6    3.32    0.71
 -15   9   6    2.47    0.85
   9 -15  -6    2.65    0.79
  -6  15  -6    2.14    0.56
   6   9  -6    3.35    0.84
  -6  -9   6    1.61    0.76
   6 -15   6    1.44    0.65
  15  -9  -9    2.40    0.91
   6 -15   9    2.93    0.85
  15  -6   9    2.45    0.74
  -6  15  -9    2.87    0.64
 -15   6  -9    2.43    0.67
 -15   9   9    2.57    0.94
   6   9  -9    3.67    0.85
  -6  -9   9    3.00    0.99
   6 -15  12    0.38    0.25
  -6  15 -12    0.28    0.24
  15  -9 -12    1.03    0.53
 -15   9  12    1.23    0.54
 -10  15 -13    1.23    0.33
 -15   5  13    0.89    0.45
  10   5 -13    1.21    0.43
  10 -15  13    1.47    0.46
  15  -5 -13    1.52    0.51
 -10  -5  13    0.94    0.47
 -10  -5  10    0.13    0.46
 -15  10 -10    0.04    0.21
  15 -10  10    0.34    0.30
  10   5 -10    0.09    0.29
 -10  -5   7    2.13    0.79
 -15   5   7    1.40    0.66
 -10  15  -7    1.60    0.45
  15 -10   7    2.17    0.59
  10   5  -7    1.51    0.64
 -15  10  -7    1.72    0.43
  10 -15   7    1.85    0.66
  15  -5  -7    2.13    0.70
 -10  -5   4   12.54    2.10
   5 -15  -4   16.31    1.98
  10 -15   4   11.53    1.80
 -10  15  -4   17.19    1.71
   5  10   4   21.38    2.06
  -5  15   4   21.07    1.79
  -5 -10  -4   12.27    2.05
  15  -5  -4   16.94    2.17
 -15   5   4   14.86    2.16
 -15   5   1   12.26    1.83
 -15  10  -1   11.66    1.46
 -10  -5   1   11.24    1.87
 -10  15  -1   14.20    1.44
  10 -15   1   10.46    1.57
  -5  15   1   17.64    1.70
   5 -15  -1   16.01    2.03
   5  10   1   16.71    1.91
  10   5  -1   14.23    1.85
  15  -5  -1   12.38    1.81
  -5 -10  -1   11.15    2.04
  15 -10   1   11.42    1.65
 -10  -5  -2   30.51    3.51
 -15  10   2   28.94    3.02
  -5  15  -2   40.24    3.14
   5  10  -2   41.62    3.46
  10   5   2   35.43    3.39
  -5 -10   2   31.26    3.65
  15 -10  -2   32.99    3.39
   5 -15   2   39.08    3.58
   5 -15   5    0.45    0.51
 -15  10   5    0.51    0.49
  15 -10  -5    0.12    0.35
  10 -15  -5    0.83    0.44
 -10  -5  -5   -0.12    0.46
  -5  15  -5    0.55    0.33
 -10  15   5    0.58    0.34
  -5 -10   5    0.14    0.40
  10   5   5    1.08    0.58
   5 -15   8    0.79    0.54
  -5  15  -8    1.23    0.46
   5  10  -8    1.57    0.57
  -5 -10   8    1.85    0.82
  15 -10  -8    1.53    0.71
 -15  10   8    0.64    0.61
  10 -15  -8    0.84    0.55
 -10  15   8    1.64    0.71
   5 -15  11    3.40    0.89
 -15  10  11    3.54    0.94
  -5  15 -11    3.95    0.76
  -5 -10  11    3.64    1.08
   5  10 -11    3.42    0.80
  15 -10 -11    2.66    0.87
   5 -15  14    0.99    0.40
  -5  15 -14    0.72    0.27
  -5 -10  14    1.48    0.55
   5  10 -14    0.96    0.36
  11   4 -14    1.13    0.42
 -11  -4  14    2.10    0.70
  15 -11  11    6.28    1.06
 -11  -4  11    6.83    1.48
 -11  15 -11    7.26    0.97
  11 -15  11    6.35    1.14
  11   4 -11    6.55    1.20
 -15   4  11    7.91    1.62
  15  -4 -11    6.84    1.26
 -15  11 -11    6.44    0.85
 -15   4   8    2.33    0.92
 -11  -4   8    2.07    0.80
 -11  15  -8    2.81    0.57
  11 -15   8    1.55    0.63
  11   4  -8    2.97    0.79
  15  -4  -8    2.09    0.71
  15 -11   5   19.83    2.08
   4 -15  -5   25.56    2.38
 -15  11  -5   19.78    1.84
 -11  15  -5   24.08    2.02
  11 -15   5   17.97    2.16
  11   4  -5   20.68    2.39
 -15   4   5   19.97    2.56
  15  -4  -5   24.51    2.61
 -11  -4   5   17.78    2.53
 -15   4   2    1.56    0.71
  15  -4  -2    2.66    0.82
 -11  15  -2    2.45    0.52
  -4 -11  -2    1.94    0.85
  -4  15   2    4.50    0.81
  15 -11   2    1.78    0.57
 -15  11  -2    2.22    0.53
   4  11   2    4.08    0.94
  11 -15   2    2.28    0.65
 -11  -4   2    2.58    0.91
   4 -15  -2    2.41    0.83
  11   4  -2    2.40    0.78
 -15   4  -1   40.22    4.03
 -15  11   1   43.32    3.69
  11 -15  -1   46.34    3.88
 -11  15   1   46.45    3.49
 -11  -4  -1   46.47    4.66
   4  11  -1   52.74    4.17
  11   4   1   49.89    4.22
  -4 -11   1   47.61    4.65
  15  -4   1   38.98    3.99
  15 -11  -1   44.52    3.95
   4 -15   4    1.21    0.61
  15  -4   4    1.35    0.67
 -11  15   4    2.09    0.57
  15 -11  -4    2.31    0.80
  11 -15  -4    1.88    0.63
  -4  15  -4    1.61    0.56
 -15  11   4    1.89    0.73
  -4 -11   4    2.89    1.00
   4  11  -4    2.04    0.68
 -11  -4  -4    1.92    0.92
  -4  15  -7   16.94    1.82
   4  11  -7   18.45    2.00
   4 -15   7   16.40    2.05
 -15   4  -7   16.14    2.09
  -4 -11   7   13.61    2.24
  15  -4   7   17.09    2.24
  11 -15  -7   17.32    2.28
 -15  11   7   12.28    2.06
  15 -11 -10    0.83    0.63
   4 -15  10    2.10    0.66
  -4  15 -10    1.97    0.54
 -15  11  10    1.47    0.71
  -4 -11  10    2.51    0.89
   4  11 -10    0.72    0.48
  -4  15 -13    3.44    0.69
  -4 -11  13    3.06    0.80
   4  11 -13    2.36    0.69
   4 -15  13    3.36    0.79
 -12  -3  12    0.76    0.41
 -12  15 -12    0.24    0.20
 -15   3  12    0.88    0.44
  12 -15  12    0.74    0.31
  12   3 -12    0.87    0.38
  15  -3 -12    0.46    0.27
 -15  12  -9    1.59    0.39
 -12  15  -9    1.56    0.45
  15 -12   9    1.66    0.53
  12 -15   9    2.08    0.63
 -15   3   9    0.92    0.72
  15 -12   6   10.34    1.40
 -15  12  -6   11.69    1.23
 -12  -3   6    9.52    1.73
 -12  15  -6   11.67    1.25
  12 -15   6   11.20    1.57
 -15   3   6   10.84    1.86
  12   3  -6   14.22    1.79
  15  -3  -6   14.28    1.85
  15  -3  -3    5.20    1.15
 -15  12  -3    5.69    0.80
 -12  15  -3    5.33    0.83
  -3  15   3    8.63    1.16
   3 -15  -3    8.32    1.47
 -15   3   3    5.64    1.24
  12 -15   3    4.32    0.88
 -12  -3   3    6.97    1.53
  12   3  -3    6.03    1.19
  15 -12   3    5.89    0.98
  12 -15   0   18.44    2.02
 -12  15   0   17.72    1.69
  -3  15   0   20.63    2.05
 -12  -3   0   15.19    2.39
   3  12   0   23.80    2.37
   3 -15   0   18.48    2.38
  12   3   0   20.02    2.28
 -15  12   0   15.38    1.73
  -3 -12   0   15.23    2.29
  15  -3   0   18.66    2.33
 -15   3   0   17.96    2.35
  15 -12   0   17.97    1.99
   3 -15   3    6.14    1.31
 -12  15   3    8.17    1.07
  15 -12  -3    6.63    1.30
  -3  15  -3   11.00    1.40
   3  12  -3    8.24    1.31
  -3 -12   3    7.06    1.55
 -15  12   3    6.64    1.13
  12   3   3    8.41    1.43
 -12  -3  -3    7.00    1.54
  12 -15  -3    6.52    1.13
 -12  15   6   10.53    1.47
  15  -3   6    8.48    1.57
 -15  12   6    9.58    1.56
  -3  15  -6   11.00    1.37
 -15   3  -6    6.34    1.36
   3 -15   6   10.21    1.57
  15 -12  -6    9.92    1.71
  12 -15  -6    9.64    1.60
  15 -12  -9    0.12    0.45
 -15  12   9    0.27    0.50
   3 -15  12    0.18    0.23
  -3 -12  12    0.79    0.40
  -3  15 -12    0.06    0.26
   3  12 -12    0.07    0.31
 -13  15 -13    0.40    0.17
  13 -15  13    0.91    0.33
  13   2 -13    0.17    0.16
 -13  -2  13    0.62    0.37
 -15  13 -10    0.04    0.17
 -13  15 -10    0.04    0.17
 -13  -2  10    0.12    0.40
  15 -13  10   -0.07    0.26
  13 -15  10    0.29    0.32
 -15   2  10    1.34    0.56
  13   2 -10   -0.10    0.37
  15  -2 -10    0.10    0.42
 -13  15  -7    1.72    0.45
 -15  13  -7    1.72    0.44
  15 -13   7    1.69    0.56
 -13  -2   7    2.08    0.78
  13 -15   7    1.87    0.59
  13   2  -7    2.43    0.74
  15  -2  -7    1.99    0.70
 -15   2   7    2.63    0.93
  15 -13   4    6.72    1.12
   2 -15  -4    8.18    1.43
 -15  13  -4    8.09    0.98
  -2  15   4   12.44    1.31
   2  13   4   11.01    1.36
 -15   2   4    8.05    1.54
  -2 -13  -4    9.17    1.60
 -13  15  -4    7.38    0.99
  13 -15   4    6.75    1.13
  13   2  -4    7.49    1.33
  15  -2  -4    7.89    1.39
 -13  -2   4    8.09    1.67
  15  -2  -1    0.23    0.46
 -15  13  -1    0.75    0.31
  15 -13   1    0.94    0.41
  -2  15   1    1.23    0.52
   2  13   1    1.20    0.57
  13 -15   1    0.68    0.41
 -15   2   1    0.64    0.54
 -13  15  -1    0.73    0.33
  13   2  -1    0.10    0.46
   2 -15  -1    0.63    0.55
 -13  -2   1    0.70    0.55
  -2 -13  -1    0.75    0.57
 -15  13   2   21.25    2.16
 -13  15   2   22.62    2.01
  -2  15  -2   29.12    2.62
   2  13  -2   27.07    2.61
 -13  -2  -2   20.23    2.74
   2 -15   2   17.44    2.47
  13   2   2   23.20    2.61
  -2 -13   2   16.48    2.52
  15  -2   2   21.99    2.62
 -15   2  -2   18.49    2.58
  15 -13  -2   20.59    2.36
  13 -15  -2   20.71    2.24
 -15  13   5    3.04    0.89
  15  -2   5    3.54    1.01
 -13  -2  -5    2.59    1.00
   2 -15   5    3.48    0.94
 -13  15   5    1.91    0.64
  15 -13  -5    4.01    1.07
  13 -15  -5    2.31    0.80
 -15   2  -5    2.51    0.94
  -2 -13   5    3.27    1.02
  -2  15  -5    2.72    0.68
   2  13  -5    3.38    0.83
  13   2   5    4.09    1.05
  15 -13  -8    0.38    0.55
  13 -15  -8   -0.13    0.52
   2 -15   8    0.65    0.43
 -15  13   8    1.76    0.72
  -2 -13   8    1.27    0.65
  -2  15  -8    0.77    0.39
   2  13  -8    1.24    0.51
 -13  15   8    0.68    0.54
 -14  -1  11    8.81    1.52
  15 -14  11    7.21    1.17
 -15  14 -11    5.66    0.87
 -14  15 -11    8.13    0.98
  14 -15  11    7.35    1.17
  15  -1 -11    7.64    1.30
 -15  14  -8    0.62    0.30
 -14  15  -8    0.92    0.38
  15 -14   8    1.11    0.51
  14 -15   8    0.41    0.40
  15 -14   5   11.03    1.44
 -15  14  -5   11.07    1.19
  14 -15   5   10.47    1.46
 -14  15  -5   10.72    1.21
 -14  -1   5   13.12    2.10
 -15   1   5   10.92    1.88
  14   1  -5   12.20    1.71
  15  -1  -5   11.23    1.66
 -14  -1   2    3.34    0.98
  -1 -14  -2    2.52    0.99
 -15  14  -2    1.89    0.50
 -14  15  -2    2.49    0.52
 -15   1   2    2.81    0.95
  -1  15   2    4.29    0.87
   1  14   2    4.47    0.94
  15 -14   2    3.11    0.71
  14 -15   2    3.16    0.74
  14   1  -2    2.42    0.78
   1 -15  -2    3.30    1.03
  15  -1  -2    2.08    0.73
  -1  15  -1   59.45    4.20
 -15  14   1   41.90    3.57
 -14  15   1   45.56    3.48
   1  14  -1   53.04    4.04
 -14  -1  -1   42.50    4.44
   1 -15   1   43.44    4.35
  -1 -14   1   39.10    4.20
  14   1   1   39.83    4.12
 -15   1  -1   38.14    4.23
  15  -1   1   43.24    4.23
  15 -14  -1   44.09    3.78
  14 -15  -1   44.15    3.78
  15  -1   4    0.25    0.44
 -14  15   4    0.52    0.36
   1 -15   4   -0.11    0.37
  15 -14  -4    0.44    0.41
 -15  14   4   -0.08    0.33
  -1 -14   4    0.67    0.53
  14 -15  -4    0.40    0.42
 -14  -1  -4    0.86    0.63
  -1  15  -4    0.30    0.31
   1  14  -4    0.35    0.38
  14   1   4    0.12    0.38
 -15  14   7   11.18    1.88
  -1  15  -7   14.31    1.65
 -14  15   7   15.14    2.08
   1  14  -7   16.20    1.82
   1 -15   7   11.81    1.86
  -1 -14   7   13.97    2.05
  15 -14  -7   12.59    2.05
  14 -15  -7   16.57    2.27
  15 -14 -10    1.69    0.73
   1 -15  10    1.50    0.65
  -1 -14  10    1.91    0.69
  -1  15 -10    1.54    0.52
   1  14 -10    2.19    0.61
   1 -15  13    2.56    0.62
  -1 -14  13    2.26    0.62
   1  14 -13    3.37    0.63
  -1  15 -13    2.09    0.51
 -15  15 -12    0.33    0.16
  15 -15  12    0.32    0.19
 -15  15  -9   -0.04    0.25
  15 -15   9    0.07    0.24
 -15   0   9   -0.13    0.38
  15   0  -9    0.19    0.28
 -15  15  -6    4.57    0.71
 -15   0   6    4.35    1.22
  15   0  -6    4.79    1.05
 -15  15  -3    0.17    0.19
   0  15   3   -0.08    0.29
  15 -15   3    0.07    0.25
   0 -15  -3    0.13    0.52
 -15   0   0   16.06    2.35
  15   0   0   17.21    2.21
   0 -15   3   -0.12    0.42
  15 -15  -3    0.10    0.32
 -15   0  -3   -0.14    0.50
 -15  15   3    0.14    0.29
   0  15  -3    0.25    0.33
 -15  15   6    2.46    0.81
  15 -15  -6    1.69    0.83
   0  15  -6    1.99    0.60
  15 -15  -9    0.67    0.39
   0 -15   9    0.21    0.27
 -15  15   9    1.10    0.51
   0  15  -9   -0.07    0.31
   0 -15  12    0.37    0.24
  -8  -8   0    3.88    1.29
  -8  16   0    4.55    0.78
  16  -8   0    3.55    0.97
 -16   8   0    4.50    0.96
   8 -16   0    2.81    0.86
   8   8   0    4.49    1.04
 -16   8  -3   33.90    3.34
   8 -16  -3   41.35    3.72
  -8  16   3   48.26    3.40
   8 -16   3   37.15    3.78
   8   8  -3   48.08    4.00
  -8  16  -3   43.97    3.40
  16  -8  -3   38.33    3.91
  16  -8   3   39.39    3.74
  -8  -8   3   42.57    4.42
 -16   8   3   39.53    3.86
 -16   8  -6    0.37    0.36
  -8  16   6    0.79    0.42
  16  -8  -6    0.34    0.46
  16  -8   6    0.08    0.34
   8 -16  -6    0.68    0.45
  -8  16  -6    0.65    0.34
   8 -16   6    1.01    0.50
 -16   8   6    0.25    0.40
 -16   8  -9    6.74    1.09
 -16   8   9    7.92    1.62
  16  -8  -9    9.85    1.55
  16  -8   9    7.85    1.20
  -8  16 -12    0.95    0.34
   8   8 -12    1.43    0.47
  -8  -8  12    1.43    0.55
  16  -8 -12    1.21    0.47
 -16   8  12    1.64    0.63
   8 -16  12    0.95    0.37
  -9  16 -13    0.46    0.19
   9   7 -13    1.03    0.38
 -16   7  13    0.29    0.27
  16  -7 -13    0.49    0.29
   9 -16  13    0.62    0.29
 -16   7  10    9.59    1.78
  -9  16 -10    9.95    1.15
   9 -16  10    7.79    1.33
   9   7 -10   11.71    1.60
  -9  -7  10   10.66    1.97
  16  -7 -10    7.89    1.44
  16  -7  -7    1.81    0.69
  -9  -7   7    1.15    0.69
 -16   9  -7    1.01    0.42
  16  -9   7    1.42    0.52
  -9  16  -7    1.17    0.42
 -16   7   7    1.02    0.65
   9   7  -7    1.46    0.62
   9 -16   7    0.98    0.53
   7 -16  -4   71.20    5.50
 -16   9  -4   56.36    4.96
  -9  16  -4   70.45    5.07
   9 -16   4   59.23    5.42
  -7  16   4   83.88    5.13
   7   9   4   95.63    5.89
   9   7  -4   71.63    5.60
  16  -7  -4   66.67    5.68
  -7  -9  -4   64.89    6.09
 -16   7   4   64.23    5.72
  16  -9   4   57.29    5.25
  -9  -7   4   63.55    5.99
 -16   9  -1    0.71    0.45
  16  -7  -1    1.11    0.66
  -9  -7   1    1.75    0.84
  16  -9   1    0.59    0.43
 -16   7   1    0.59    0.44
  -9  16  -1    1.61    0.44
   7   9   1    1.05    0.59
   9   7  -1    1.22    0.51
  -7  -9  -1    1.15    0.87
  -7  16  -2  111.34    6.96
   7 -16   2   92.40    7.35
 -16   9   2   86.61    7.19
   7   9  -2  111.13    7.58
   9   7   2  110.94    7.56
 -16   7  -2   81.62    7.07
   9 -16  -2   93.72    7.15
  16  -9  -2   88.30    7.37
  16  -7   2   86.41    7.30
  -7  -9   2   86.94    7.94
  -9  -7  -2   90.19    7.83
 -16   7  -5    0.62    0.40
  -9  16   5    1.03    0.42
  16  -7   5    0.86    0.56
   9 -16  -5    0.81    0.43
   7   9  -5    0.80    0.56
 -16   7  -8   19.53    2.14
  -7  16  -8   21.15    2.04
   7 -16   8   20.07    2.39
   7   9  -8   24.89    2.50
 -16   9   8   23.11    2.86
  16  -9  -8   23.56    2.78
  -7  -9   8   25.40    3.08
  16  -7   8   23.58    2.50
 -16   9  11    0.68    0.40
  -7  16 -11    0.36    0.25
  16  -9 -11    0.65    0.35
   7 -16  11    0.35    0.35
  -7  16 -14    1.15    0.32
   7 -16  14    1.02    0.38
 -10  16 -14    1.68    0.37
  10 -16  14    2.51    0.60
 -10  16 -11    0.15    0.20
  10 -16  11    0.50    0.29
 -16   6  11    0.27    0.25
  16  -6 -11    0.20    0.32
 -10  16  -8   33.83    2.81
  10 -16   8   31.46    3.18
  10   6  -8   35.78    3.32
 -16   6   8   30.47    3.53
  16  -6  -8   35.65    3.43
 -10  -6   8   31.76    3.63
   6 -16  -5    8.87    1.37
 -16  10  -5    7.43    1.06
  -6  16   5   11.33    1.19
 -10  -6   5    8.25    1.60
  16 -10   5    7.11    1.16
 -10  -6   2   84.56    8.36
 -16  10  -2   94.89    7.60
 -10  16  -2  113.78    7.57
   6 -16  -2  107.52    8.25
  10 -16   2   91.06    7.92
   6  10   2  148.34    8.59
  10   6  -2  123.24    8.45
  -6  16   2  140.98    7.87
  16  -6  -2  106.88    8.29
  -6 -10  -2  105.80    8.94
  16 -10   2   94.91    7.91
 -16   6   2   99.52    8.26
 -16  10   1    0.15    0.28
  16  -6   1    0.34    0.42
  16 -10  -1    0.11    0.42
 -10  16   1    0.05    0.20
 -10  -6  -1   -0.14    0.41
  -6  16  -1    0.20    0.26
  10 -16  -1    0.09    0.33
 -16   6  -1    0.29    0.31
   6  10  -1    0.20    0.32
  -6 -10   1   -0.15    0.48
  10   6   1   -0.11    0.37
   6 -16   1   -0.34    0.51
 -10  16   4  131.10    8.08
  -6  16  -4  119.44    8.18
 -16  10   4  101.95    8.51
   6 -16   4  104.78    8.57
   6  10  -4  136.31    8.76
 -16   6  -4  101.77    8.43
  16 -10  -4  113.09    8.76
  -6 -10   4  109.86    9.21
  16  -6   4  110.73    8.73
  10 -16  -4  113.01    8.37
 -16  10   7    5.07    1.24
  16 -10  -7    4.72    1.22
 -16   6  -7    5.32    1.03
  -6  16  -7    5.26    0.90
  16  -6   7    5.84    1.19
   6  10  -7    6.76    1.13
  -6 -10   7    4.46    1.29
   6 -16   7    6.20    1.19
  -6  16 -10   12.79    1.45
   6  10 -10   12.32    1.62
   6 -16  10   13.20    1.82
  -6 -10  10   13.23    2.10
  -6 -10  13    0.71    0.39
   6  10 -13    0.45    0.24
 -11  16 -12    0.23    0.20
  11   5 -12    0.77    0.36
 -16   5  12    0.71    0.42
  11 -16  12    0.62    0.29
  16  -5 -12    1.07    0.43
 -11  -5  12    0.70    0.41
 -16   5   9    4.37    1.23
 -16  11  -9    4.96    0.73
 -11  -5   9    4.93    1.28
 -11  16  -9    5.70    0.85
  16 -11   9    4.68    0.91
  11   5  -9    5.59    1.10
  16  -5  -9    5.01    1.09
 -16  11  -6    0.21    0.23
 -11  -5   6    0.14    0.40
 -11  16  -6    0.64    0.31
 -16   5   6    0.13    0.45
  16 -11   6    0.13    0.32
  11 -16   6    0.18    0.40
  11   5  -6    0.51    0.45
  16  -5  -6    0.99    0.58
  16  -5  -3    8.32    1.48
 -16  11  -3    7.77    1.05
  -5  16   3    9.59    1.18
 -11  16  -3    6.50    0.95
   5 -16  -3    8.57    1.41
  11 -16   3    6.62    1.20
 -11  -5   3    7.05    1.47
  11   5  -3   10.54    1.57
 -16   5   3    8.22    1.55
  16 -11   3    6.30    1.05
 -16  11   0   16.65    1.91
 -11  16   0   18.72    1.82
 -11  -5   0   14.63    2.30
  -5  16   0   25.19    2.21
   5 -16   0   17.18    2.35
   5  11   0   22.03    2.37
  11   5   0   19.64    2.35
  -5 -11   0   15.22    2.57
  16  -5   0   17.19    2.25
  16 -11   0   17.96    2.13
  11 -16  -3   36.51    3.46
 -11  16   3   42.45    3.21
 -11  -5  -3   32.88    3.92
  -5  16  -3   44.00    3.42
 -16   5  -3   33.87    3.56
   5 -16   3   36.50    3.76
   5  11  -3   43.35    3.70
 -16  11   3   36.88    3.66
  11   5   3   46.32    3.97
  -5 -11   3   34.19    4.06
  16  -5   3   37.70    3.81
  16 -11  -3   37.57    3.79
   5 -16   6    0.99    0.60
 -16   5  -6    1.01    0.56
  16  -5   6    2.12    0.79
  11 -16  -6    0.76    0.52
  -5  16  -6    1.25    0.49
 -11  16   6    1.76    0.57
  -5 -11   6    0.44    0.58
 -16  11   6    1.69    0.68
  16 -11  -9    2.62    0.90
   5 -16   9    2.45    0.82
  -5  16  -9    3.13    0.70
  -5 -11   9    2.93    1.06
   5  11  -9    3.14    0.78
 -16  11   9    3.52    1.09
  -5  16 -12    0.84    0.30
  -5 -11  12    1.26    0.53
   5  11 -12    0.97    0.40
 -16   4  13    1.06    0.47
  12   4 -13    1.25    0.45
  16  -4 -13    0.46    0.28
 -12  -4  13    1.23    0.54
 -12  -4  10    2.98    0.90
 -16  12 -10    1.73    0.45
 -12  16 -10    2.53    0.56
  16 -12  10    1.99    0.60
  12 -16  10    1.59    0.55
  12   4 -10    3.45    0.84
 -16   4  10    1.90    0.75
 -16   4   7    0.93    0.78
 -16  12  -7    0.95    0.33
 -12  16  -7    1.29    0.39
 -12  -4   7    0.91    0.57
  16 -12   7    1.14    0.47
  12 -16   7    1.18    0.49
  12   4  -7    1.89    0.75
  16  -4  -7    1.49    0.65
 -16  12  -4   18.65    1.81
   4 -16  -4   20.52    2.33
 -12  -4   4   16.20    2.43
  12   4  -4   24.48    2.50
  16 -12   4   18.62    2.04
 -16   4   1    1.12    0.68
 -16  12  -1    0.18    0.28
 -12  16  -1    0.96    0.35
  16 -12   1    0.60    0.37
  -4 -12  -1    1.15    0.66
  -4  16   1    1.25    0.47
   4  12   1    0.62    0.49
  12 -16   1    0.74    0.45
 -12  -4   1    0.15    0.56
   4 -16  -1    0.38    0.55
  12   4  -1    0.53    0.47
  12 -16  -2   49.80    4.20
 -16   4  -2   40.66    4.36
 -16  12   2   42.38    3.99
 -12  16   2   53.68    3.89
 -12  -4  -2   53.44    5.22
  -4  16  -2   55.29    4.17
   4  12  -2   65.45    4.80
   4 -16   2   45.29    4.61
  12   4   2   52.64    4.62
  -4 -12   2   49.44    5.08
  16  -4   2   45.67    4.40
  16 -12  -2   49.13    4.43
   4 -16   5    2.47    0.86
  16  -4   5    4.00    1.04
 -12  16   5    2.84    0.73
 -16   4  -5    2.21    0.82
  12 -16  -5    3.58    0.95
  -4  16  -5    3.18    0.77
 -16  12   8    2.91    1.00
  12 -16  -8    2.65    0.98
  16 -12  -8    3.94    1.09
  -4 -12   8    4.24    1.18
   4  12  -8    3.80    0.87
   4 -16  11    0.18    0.17
 -16  12  11    0.42    0.32
  -4  16 -11   -0.07    0.27
   4  12 -11   -0.08    0.26
  16 -12 -11    0.83    0.41
 -13  -3  11    0.89    0.44
 -16  13 -11   -0.04    0.22
  16 -13  11    0.20    0.15
 -16   3  11    0.80    0.43
  13   3 -11    0.54    0.29
  16  -3 -11    0.67    0.33
  16 -13   8   17.38    1.94
 -13  -3   8   16.29    2.40
 -16  13  -8   16.22    1.60
 -16   3   8   17.25    2.49
  13   3  -8   22.40    2.42
  16  -3  -8   20.56    2.27
 -13  16  -5    5.94    0.84
 -16   3   5    5.51    1.33
 -16  13  -5    4.54    0.72
 -13  -3   5    6.38    1.39
  13 -16   5    4.71    0.95
  13   3  -5    6.79    1.23
  16  -3  -5    5.60    1.19
 -16  13  -2  123.57    9.33
  13 -16   2  127.22    9.77
 -13  16  -2  138.72    9.38
  -3  16   2  190.00   10.12
 -13  -3   2  133.12   10.76
   3 -16  -2  160.76   10.93
   3  13   2  183.09   10.28
  -3 -13  -2   95.50   10.00
  13   3  -2  151.89   10.33
 -16   3   2  135.00   10.45
  16 -13   2  129.94    9.62
 -16   3  -1    2.32    0.89
  16  -3   1    3.56    0.95
 -16  13   1    2.96    0.69
 -13  16   1    2.77    0.59
  -3  16  -1    5.77    0.96
  16 -13  -1    2.02    0.70
  -3 -13   1    1.72    0.80
   3  13  -1    5.72    1.15
   3 -16   1    3.82    1.10
 -13  16   4   70.96    5.54
  -3  16  -4   84.52    5.86
 -13  -3  -4   64.58    6.38
   3  13  -4   85.70    6.01
   3 -16   4   56.15    5.80
  13   3   4   80.12    6.20
  -3 -13   4   71.61    6.48
  16  -3   4   73.40    6.16
  13 -16  -4   69.79    5.79
 -16   3  -4   62.54    6.00
   3 -16   7    1.14    0.60
  16 -13  -7    1.31    0.69
  13 -16  -7    2.02    0.77
 -13  16   7    0.23    0.55
  -3 -13   7    0.81    0.60
  -3  16  -7    1.13    0.44
   3  13  -7    0.97    0.53
 -16  13   7    0.59    0.50
  -3  16 -10   18.16    1.86
   3  13 -10   19.33    2.08
   3 -16  10   15.65    2.07
  -3 -13  10   17.20    2.35
   3 -16  13    0.75    0.34
  -3 -13  13    1.26    0.46
 -14  -2  12    1.12    0.49
 -14  16 -12    0.24    0.19
  14 -16  12    0.66    0.28
  14   2 -12    0.52    0.28
 -16  14  -9    0.20    0.18
 -14  16  -9    0.13    0.22
 -14  -2   9    0.25    0.50
  16 -14   9    0.13    0.30
  14 -16   9    0.42    0.34
 -16   2   9    1.00    0.50
  14   2  -9    0.10    0.33
  16  -2  -9    0.19    0.38
 -16   2   6    6.22    1.37
 -14  16  -6    5.75    0.82
  16 -14   6    4.77    0.92
 -16  14  -6    5.60    0.80
  14 -16   6    3.51    0.80
 -14  -2   6    3.32    1.11
  14   2  -6    6.91    1.23
  16  -2  -6    5.63    1.13
  -2 -14  -3    4.85    1.48
 -16  14  -3    4.11    0.68
   2  14   3    6.47    1.12
  16 -14   3    4.75    0.91
  14 -16   3    4.36    0.90
   2 -16  -3    5.00    1.23
 -14  -2   3    4.63    1.30
  14   2  -3    3.04    0.92
 -14  16  -3    3.78    0.66
  14 -16   0   22.59    2.39
 -14  16   0   21.88    2.06
  -2  16   0   30.82    2.62
 -14  -2   0   21.26    2.91
   2 -16   0   22.29    2.94
  14   2   0   23.78    2.74
 -16   2   0   19.96    2.71
  16  -2   0   21.75    2.72
 -14  -2  -3    2.77    0.98
  16  -2   3    2.87    0.92
   2 -16   3    1.82    0.82
 -16  14   3    1.82    0.61
 -14  16   3    1.89    0.61
  16 -14  -3    1.47    0.66
  -2 -14   3    1.68    0.81
  14 -16  -3    1.27    0.61
  -2  16  -3    2.19    0.73
   2  14  -3    2.22    0.72
 -16   2  -3    1.36    0.83
  14   2   3    3.03    0.89
 -16   2  -6    7.07    1.58
   2 -16   6    8.28    1.46
  16 -14  -6    7.53    1.53
   2  14  -6    9.31    1.39
  -2 -14   6    5.27    1.35
 -16  14   6    7.14    1.41
  16 -14  -9    1.43    0.85
 -16  14   9    3.90    0.98
   2 -16   9    1.53    0.64
  -2 -14   9    2.12    0.76
  -2  16  -9    1.89    0.58
   2  14  -9    2.19    0.66
   2 -16  12    1.23    0.44
  -2 -14  12    0.42    0.28
  -2  16 -12    0.77    0.28
   2  14 -12    0.55    0.26
 -16  15 -10   -0.08    0.25
 -15  -1  10    1.00    0.46
  16 -15  10    0.59    0.29
 -16   1  10    1.27    0.53
  15 -16  10    0.67    0.27
  15   1 -10    0.30    0.26
  16  -1 -10    0.85    0.40
  15   1  -7   13.27    1.77
  16  -1  -7    9.63    1.64
 -15  -1   7   10.11    1.93
 -16   1   7    9.90    1.93
  16 -15   4    5.34    0.98
 -16   1   4    6.50    1.42
 -16  15  -4    6.17    0.83
 -15  16  -4    6.24    0.85
  15 -16   4    5.30    1.01
 -15  -1   4    4.97    1.36
  15   1  -4    5.02    1.09
  16  -1  -4    6.05    1.20
 -15  -1   1    1.91    0.87
  -1 -15  -1    1.34    0.86
 -16  15  -1    1.70    0.45
 -15  16  -1    1.36    0.43
 -16   1   1    1.82    0.81
  16 -15   1    1.35    0.53
  15 -16   1    1.95    0.62
   1  15   1    1.87    0.75
  15   1  -1    1.45    0.68
  16  -1  -1    2.07    0.76
  16  -1   2    4.54    1.21
 -15  16   2    4.84    0.87
   1 -16   2    3.50    1.11
 -15  -1  -2    3.67    1.20
  -1 -15   2    2.42    1.04
  -1  16  -2    7.21    1.20
  16 -15  -2    5.60    1.10
  15 -16  -2    4.64    0.99
 -16  15   2    5.70    0.96
   1  15  -2    5.93    1.07
 -16   1  -2    5.25    1.31
  15   1   2    6.40    1.30
 -15  16   5   18.18    2.12
  -1  16  -5   19.75    2.03
   1  15  -5   20.50    2.15
   1 -16   5   13.25    2.10
  -1 -15   5   16.24    2.39
 -16  15   5   14.09    2.16
  16  -1   5   19.82    2.61
 -16   1  -5   14.90    2.51
  16 -15  -5   18.17    2.42
  15 -16  -5   18.03    2.36
 -15  16   8    0.73    0.40
  16 -15  -8    1.76    0.69
  15 -16  -8    0.84    0.66
   1 -16   8    0.92    0.56
  -1 -15   8    0.49    0.54
  -1  16  -8    0.74    0.38
   1  15  -8    0.62    0.39
 -16  15   8    1.13    0.62
   1 -16  11    1.21    0.43
  -1 -15  11    0.91    0.40
  -1  16 -11    0.91    0.32
   1  15 -11    0.74    0.30
 -16  16 -11    0.60    0.21
 -16   0  11    0.86    0.43
  16 -16  11    0.72    0.29
  16   0 -11    0.49    0.29
  16 -16   8   14.47    1.71
 -16  16  -8   13.73    1.42
 -16   0   8   14.26    2.24
  16   0  -8   15.86    2.04
 -16  16  -5    0.08    0.21
  16 -16   5    0.14    0.32
 -16   0   5    0.14    0.59
  16   0  -5    0.10    0.43
  16 -16   2   63.10    4.94
 -16  16  -2   56.81    4.55
   0 -16  -2   71.66    6.07
 -16   0   2   52.87    5.57
  16   0  -2   60.72    5.35
   0 -16   1   -0.14    0.45
 -16  16   1    0.44    0.33
 -16   0  -1    0.15    0.48
  16 -16  -1    0.08    0.37
   0  16  -1    0.10    0.41
  16   0   1   -0.12    0.43
 -16  16   4   55.59    4.52
   0  16  -4   59.77    4.53
   0 -16   4   41.05    4.57
 -16   0  -4   52.01    5.31
  16   0   4   53.08    5.08
  16 -16  -4   54.97    4.84
  16 -16  -7    0.41    0.59
   0  16  -7    0.15    0.32
 -16  16   7    0.58    0.34
   0  16 -10    6.99    1.09
   0 -16  10    8.26    1.36
   9   8 -11    1.65    0.62
  -9  -8  11    2.12    0.71
   9 -17  11    1.76    0.53
 -17   9  -8    0.30    0.29
  -9  17  -8   -0.16    0.27
   9 -17   8   -0.09    0.37
  -8  17   5   16.66    1.62
  -9  17  -5   14.82    1.60
   9 -17   5   11.82    1.81
   9   8  -5   15.67    1.99
  17  -8  -5   13.51    1.99
 -17   8   5   11.74    1.98
 -17   9  -5   13.14    1.60
  17  -9   5   10.78    1.65
  -9  -8   5   12.35    2.21
   8 -17  -5   15.32    1.84
  -8  17   2   35.33    2.72
   8 -17  -2   24.66    2.79
 -17   8   2   20.41    2.76
  -9  17  -2   30.63    2.62
   8   9   2   35.34    3.34
   9   8  -2   25.78    2.96
  17  -8  -2   23.94    3.01
  -8  -9  -2   25.94    3.51
  -9  -8   2   25.52    3.40
  -9  17   1   14.57    1.55
   9 -17  -1   10.29    1.57
  -8  17  -1   16.35    1.68
   8 -17   1   13.89    1.97
 -17   9   1    9.85    1.66
   8   9  -1   14.51    2.01
   9   8   1   17.27    2.17
 -17   8  -1   11.05    1.69
  17  -9  -1   13.38    1.94
  -8  -9   1   12.01    2.38
  -9  -8  -1   13.14    2.38
  -9  17   4   10.17    1.17
  17  -9  -4    6.20    1.28
  -8  17  -4    8.86    1.16
  17  -8   4    5.70    1.23
   8   9  -4   10.60    1.58
 -17   8  -4    6.77    1.16
   9 -17  -4    7.59    1.29
 -17   9   4    5.88    1.34
   8 -17   4    4.75    1.22
  -8  -9   4    7.97    1.81
  17  -9  -7    9.34    1.64
 -17   8  -7    8.02    1.20
  -8  17  -7    7.46    1.08
   8 -17   7    7.14    1.30
   8   9  -7   11.86    1.63
 -17   9   7   10.77    1.79
  -8  -9   7    7.80    1.62
  17  -8   7    9.83    1.47
  -8  17 -10    0.26    0.30
   8   9 -10    0.17    0.34
  -8  -9  10    1.01    0.47
 -17   9  10    0.40    0.31
   8 -17  10    0.67    0.31
  17  -9 -10    0.77    0.39
  -8  17 -13    2.58    0.48
  -8  -9  13    2.68    0.77
   8   9 -13    2.49    0.58
   8 -17  13    1.52    0.47
 -10  17 -12    4.49    0.73
  17  -7 -12    5.86    1.04
  10 -17  12    3.76    0.83
 -17   7  12    5.62    1.22
 -17   7   9    0.66    0.39
 -17  10  -9    0.27    0.22
 -10  17  -9    0.15    0.28
  17 -10   9   -0.41    0.40
  10   7  -9    1.28    0.54
  10 -17   9    0.09    0.33
  17  -7  -9   -0.11    0.45
 -10  -7   9    0.15    0.34
 -10  17  -6   72.23    5.08
  10 -17   6   62.20    5.44
 -17   7   6   68.74    5.98
  17  -7  -6   71.62    5.91
 -10  -7   6   60.28    6.04
 -17  10  -3    0.33    0.36
 -10  -7   3    0.75    0.59
  17 -10   3    0.53    0.40
  -7 -10  -3    0.85    0.84
   7  10   3    0.87    0.55
  10   7  -3    0.73    0.55
 -17  10   0   90.72    8.06
 -10  17   0  133.54    8.10
  10 -17   0   89.68    8.11
  -7  17   0  154.43    8.46
 -17   7   0   97.74    8.39
   7 -17   0  115.88    8.78
   7  10   0  138.21    8.91
  17  -7   0  112.25    8.71
  -7 -10   0  104.31    9.20
  17 -10   0  110.11    8.59
 -10  -7  -3    0.50    0.62
  17 -10  -3    0.12    0.38
  17  -7   3    0.57    0.48
 -10  17   3   -0.06    0.21
 -17   7  -3    0.10    0.39
  -7  17  -3    0.06    0.32
 -17  10   3    0.50    0.40
  10 -17  -3   -0.09    0.38
   7  10  -3   -0.11    0.46
  10   7   3    0.11    0.45
  -7 -10   3    0.16    0.60
   7 -17   3    0.53    0.49
 -17   7  -6   50.56    4.72
 -10  17   6   74.01    5.08
  -7  17  -6   61.75    4.64
   7 -17   6   53.46    4.99
   7  10  -6   74.19    5.27
  17 -10  -6   57.34    5.30
  -7 -10   6   59.25    5.72
  17  -7   6   53.04    5.09
 -17  10   6   54.44    5.35
  10 -17  -6   64.59    5.30
  17 -10  -9   -0.12    0.44
  -7  17  -9    0.06    0.25
 -17  10   9    0.93    0.50
   7  10  -9    0.09    0.39
  -7 -10   9    0.13    0.49
   7 -17   9    0.19    0.30
 -17  10  12    7.26    1.41
  17 -10 -12    7.71    1.28
 -11  17 -13    0.80    0.25
 -17   6  13    1.04    0.49
  11   6 -13    1.28    0.44
  11 -17  13    0.81    0.33
 -11  -6  13    1.23    0.52
  17  -6 -13    0.86    0.38
  11 -17  10    0.56    0.34
  17  -6 -10    1.00    0.42
 -17   6  10    0.40    0.31
 -17  11  -7    7.41    1.00
 -11  17  -7    8.30    1.08
  11 -17   7    7.81    1.29
 -17   6   7    6.09    1.42
  11   6  -7    7.62    1.32
 -11  -6   7    8.46    1.65
  17 -11   7    7.72    1.15
  17  -6  -7    7.18    1.38
   6 -17  -4   21.15    2.42
  -6  17   4   24.20    2.05
 -11  17  -4   16.93    1.78
  11 -17   4   16.06    2.08
  17  -6  -4   18.57    2.40
 -17   6   4   17.49    2.43
  17  -6  -1    1.50    0.66
 -17  11  -1    1.23    0.53
  17 -11   1    1.30    0.55
 -11  17  -1    2.07    0.51
  -6  17   1    2.35    0.65
 -11  -6   1    2.49    0.91
 -17   6   1    1.29    0.67
  -6 -11  -1    1.91    0.95
   6  11   1    2.09    0.79
   6 -17  -1    2.64    0.85
  11   6  -1    1.54    0.76
  11 -17  -2   15.72    1.95
 -11  -6  -2   15.73    2.48
 -11  17   2   16.66    1.68
  -6  17  -2   18.96    1.88
 -17   6  -2   12.01    1.92
   6 -17   2   12.68    1.98
   6  11  -2   18.99    2.19
  11   6   2   19.55    2.42
  17  -6   2   17.43    2.25
  -6 -11   2   16.51    2.59
 -11  17   5   10.70    1.40
 -17  11   5    8.72    1.58
  17 -11  -5    6.65    1.44
  -6  17  -5    9.69    1.27
   6 -17   5   10.64    1.64
   6  11  -5    9.85    1.48
  -6 -11   5    9.29    1.79
  17  -6   5   11.23    1.74
 -17   6  -5    7.59    1.44
  11 -17  -5    9.22    1.45
  17 -11  -8    2.93    0.96
  -6  17  -8    2.86    0.63
  -6 -11   8    2.69    0.98
   6  11  -8    1.11    0.56
 -17  11   8    1.59    0.85
   6 -17   8    1.64    0.75
 -17  11  11    0.55    0.37
  -6  17 -11    0.05    0.19
  -6 -11  11    0.89    0.44
   6  11 -11    0.55    0.31
  17 -11 -11    0.68    0.37
   6 -17  11    0.93    0.39
 -12  -5  11    2.97    0.85
 -12  17 -11    1.90    0.49
  12   5 -11    2.01    0.58
  12 -17  11    1.72    0.56
 -17   5  11    2.98    0.87
  17  -5 -11    3.08    0.75
 -17   5   8    2.80    0.92
 -12  -5   8    2.47    0.93
 -17  12  -8    1.59    0.44
 -12  17  -8    2.25    0.53
  17 -12   8    1.44    0.50
  12 -17   8    1.43    0.59
  12   5  -8    2.19    0.73
  17  -5  -8    2.00    0.73
 -12  -5   5   17.28    2.49
 -17  12  -5   16.63    1.73
 -12  17  -5   18.60    1.77
  12 -17   5   17.50    2.09
  12   5  -5   23.77    2.55
 -17   5   5   18.73    2.49
  17  -5  -5   23.03    2.55
  17 -12   5   19.09    1.96
   5  12   2   13.04    1.81
  -5 -12  -2    8.58    1.84
 -12  -5   2    6.93    1.65
  12   5  -2   10.63    1.68
 -17   5  -1   10.75    1.82
 -17  12   1   11.73    1.57
  12 -17  -1   14.16    1.77
 -12  17   1   13.42    1.44
  -5  17  -1   15.86    1.71
   5 -17   1   12.66    1.94
   5  12  -1   18.15    2.18
  -5 -12   1   13.07    2.37
  17  -5   1   11.31    1.87
  17 -12  -1   10.39    1.77
 -12  17   4   24.28    2.26
 -17   5  -4   17.50    2.40
  -5  17  -4   22.50    2.19
 -17  12   4   19.92    2.44
   5  12  -4   23.86    2.51
   5 -17   4   19.92    2.58
  -5 -12   4   19.19    2.84
  17  -5   4   20.60    2.63
  17 -12  -4   19.16    2.57
  12 -17  -4   22.75    2.40
 -12  17   7   14.11    1.91
  -5  17  -7   14.32    1.68
 -17   5  -7   12.69    1.95
   5 -17   7   13.73    2.05
  17 -12  -7   14.76    2.15
  -5 -12   7   12.12    2.18
  12 -17  -7   13.34    2.11
 -17  12   7   15.55    2.20
  17 -12 -10    0.61    0.36
   5 -17  10   -0.10    0.26
  -5  17 -10    0.19    0.30
  -5 -12  10    1.08    0.56
 -17  12  10    1.11    0.52
 -13  -4  12    2.50    0.77
 -17   4  12    2.44    0.76
  13   4 -12    2.84    0.71
  17  -4 -12    3.17    0.74
 -13  -4   9    0.67    0.50
 -17  13  -9    0.24    0.22
  17 -13   9    0.46    0.38
  13 -17   9    0.23    0.35
  13   4  -9    0.57    0.40
  17  -4  -9    0.99    0.51
 -17   4   9    1.21    0.53
 -17  13  -6   20.31    1.83
 -13  17  -6   21.16    1.89
 -13  -4   6   18.74    2.62
 -17   4   6   15.81    2.45
  13   4  -6   24.28    2.62
  17  -4  -6   19.31    2.40
  13 -17   6   17.10    2.13
  17 -13   6   19.05    2.08
  17  -4  -3    0.24    0.47
 -17  13  -3    0.16    0.28
 -13  17  -3    0.10    0.19
  -4  17   3   -0.14    0.37
  17 -13   3    0.14    0.22
 -17   4   3    0.66    0.55
  13 -17   3    0.08    0.29
   4 -17  -3   -0.13    0.41
 -17  13   0   59.25    4.98
   4 -17   0   69.50    5.84
 -13  -4   0   55.71    5.91
  13   4   0   69.13    5.71
  17  -4   0   57.49    5.53
 -17   4   0   58.25    5.65
  17 -13   0   66.76    5.40
  17  -4   3    1.83    0.78
 -13  17   3    1.96    0.55
  17 -13  -3    1.52    0.69
  13 -17  -3    1.31    0.57
 -17   4  -3    0.25    0.53
  -4 -13   3    1.26    0.78
   4  13  -3    1.54    0.71
 -13  -4  -3    1.17    0.67
  13   4   3    1.94    0.81
 -13  17   6   23.75    2.63
 -17   4  -6   21.11    2.75
 -17  13   6   22.52    2.74
  -4  17  -6   27.50    2.54
   4  13  -6   30.50    2.83
   4 -17   6   22.13    2.76
  -4 -13   6   21.73    3.08
  17  -4   6   24.12    2.93
  17 -13  -6   24.76    2.98
  13 -17  -6   23.03    2.85
  17 -13  -9    0.76    0.41
   4 -17   9    0.10    0.43
  -4 -13   9    0.65    0.45
  -4  17  -9   -0.07    0.34
   4  13  -9    0.34    0.33
 -17  13   9    0.97    0.48
   4 -17  12    3.48    0.77
  -4  17 -12    3.65    0.67
   4  13 -12    3.79    0.73
  -4 -13  12    4.31    0.95
 -14  17 -13    0.38    0.16
 -17  14 -10    1.88    0.45
 -14  -3  10    3.15    0.88
 -14  17 -10    1.83    0.48
  17 -14  10    1.42    0.58
  14 -17  10    2.60    0.65
 -17   3  10    4.00    1.01
  14   3 -10    4.10    0.83
  17  -3 -10    3.57    0.79
 -14  17  -7    1.75    0.45
  17 -14   7    1.87    0.60
 -14  -3   7    1.19    0.77
  14 -17   7    1.39    0.50
  14   3  -7    2.47    0.79
  17  -3  -7    2.45    0.80
 -17   3   7    1.48    0.80
 -17  14  -4   31.95    2.60
 -14  17  -4   35.37    2.74
  14 -17   4   29.15    2.96
 -17   3   4   30.76    3.50
  14   3  -4   33.62    3.33
  17  -3  -4   33.45    3.37
 -14  -3   4   28.69    3.56
  17 -14   4   29.85    2.86
 -17  14  -1    0.06    0.26
  -3 -14  -1   -0.15    0.54
 -14  17  -1    0.05    0.22
  17 -14   1    0.15    0.26
  -3  17   1   -0.16    0.32
   3  14   1    0.20    0.42
  14 -17   1   -0.08    0.33
 -14  -3   1    0.17    0.62
   3 -17  -1   -0.14    0.51
  14   3  -1    0.23    0.36
 -17  14   2   40.02    3.80
  -3  17  -2   56.78    4.19
 -14  -3  -2   40.83    4.69
   3  14  -2   57.37    4.45
   3 -17   2   44.89    4.58
  14   3   2   48.02    4.48
  -3 -14   2   38.52    4.50
  17  -3   2   47.46    4.49
 -17   3  -2   42.65    4.51
  17 -14  -2   44.54    4.19
   3 -17   5    3.86    1.03
  17 -14  -5    3.82    1.11
 -17  14   5    4.05    1.02
  17  -3   5    2.90    0.97
 -17   3  -5    3.73    1.13
  -3 -14   5    3.82    1.16
  -3  17  -5    5.17    0.96
   3  14  -5    5.02    1.05
  -3  17  -8    7.20    1.13
   3  14  -8    8.49    1.29
  -3 -14   8    7.65    1.58
   3 -17   8    7.31    1.34
 -17  15 -11    2.30    0.46
 -15  -2  11    3.19    0.85
 -15  17 -11    1.74    0.45
  15 -17  11    1.58    0.45
  15   2 -11    3.69    0.78
  17  -2 -11    3.35    0.74
 -17  15  -8    0.40    0.27
 -15  -2   8    0.89    0.45
  17 -15   8    0.07    0.24
  15 -17   8   -0.07    0.32
  15   2  -8    0.20    0.38
 -17   2   8    0.14    0.33
  17  -2  -8    0.88    0.48
  17 -15   5    7.21    1.19
 -17   2   5    8.39    1.67
 -17  15  -5    7.92    1.03
  15   2  -5   12.13    1.69
  17  -2  -5   10.25    1.60
 -15  17  -2    3.75    0.67
 -17   2   2    2.65    0.98
 -17  15  -2    3.27    0.61
  17 -15   2    3.42    0.75
  15 -17   2    2.87    0.78
 -15  -2   2    2.16    0.98
  15   2  -2    3.85    1.00
  17  -2  -2    4.33    1.09
 -17  15   1   14.81    1.75
 -15  17   1   15.88    1.63
  -2  17  -1   20.12    2.15
   2  15  -1   19.86    2.17
 -15  -2  -1   15.10    2.43
   2 -17   1   18.55    2.60
  -2 -15   1   14.00    2.30
  15   2   1   16.05    2.21
 -17   2  -1   13.41    2.23
  17  -2   1   15.04    2.22
  17 -15  -1   14.53    1.95
  17  -2   4    7.60    1.60
 -15  17   4    7.79    1.27
   2 -17   4    5.99    1.43
 -17  15   4    6.04    1.15
  17 -15  -4    7.74    1.51
  -2  17  -4   10.04    1.47
  -2 -15   4    6.71    1.59
   2  15  -4   10.98    1.54
 -17   2  -4    6.69    1.54
  15 -17  -4    8.25    1.48
  17 -15  -7    7.23    1.57
  15 -17  -7   10.30    1.84
  -2 -15   7    9.11    1.71
   2  15  -7   11.73    1.53
 -15  17   7    8.58    1.66
   2 -17   7    8.87    1.53
 -17  15   7    5.41    1.41
   2 -17  10    1.14    0.44
  -2 -15  10    1.14    0.48
  -2  17 -10    0.13    0.26
   2  15 -10   -0.07    0.34
 -16  17 -12    0.92    0.25
  16 -17  12    0.95    0.33
 -16  17  -9    0.20    0.23
 -16  -1   9    0.50    0.33
  16 -17   9    1.27    0.39
 -17   1   9    1.46    0.58
  16   1  -9    1.38    0.49
  17  -1  -9    1.26    0.46
 -17  16  -6    4.74    0.74
 -16  17  -6    3.93    0.71
  16 -17   6    5.00    0.97
 -16  -1   6    4.74    1.40
  16   1  -6    7.31    1.29
 -17   1   6    6.42    1.44
  17  -1  -6    6.54    1.24
 -17   1   3    1.00    0.65
 -17  16  -3    0.22    0.23
 -16  17  -3    0.32    0.26
  17 -16   3    0.28    0.35
  16 -17   3    0.07    0.34
 -16  -1   3    0.45    0.59
  16   1  -3    0.76    0.50
  17  -1  -3    0.22    0.46
 -17  16   0   21.68    2.19
 -16  17   0   21.36    2.06
  -1  17   0   32.89    2.87
   1  16   0   36.25    3.06
   1 -17   0   24.03    3.19
  -1 -16   0   20.64    2.93
 -17   1   0   19.36    2.82
  16   1   0   22.34    2.75
  17  -1   0   20.24    2.68
  17 -16   0   22.07    2.36
  16 -17   0   21.02    2.31
   1 -17   3    4.47    1.25
 -16  -1  -3    7.06    1.67
 -17  16   3    5.83    1.08
 -16  17   3    6.35    1.09
  -1 -16   3    5.51    1.36
  -1  17  -3    7.85    1.27
  17 -16  -3    6.11    1.25
  16 -17  -3    6.72    1.31
 -17   1  -3    5.67    1.48
   1  16  -3    7.31    1.22
  16   1   3    5.21    1.32
  17  -1   3    5.74    1.41
 -17  16   6    8.48    1.63
   1 -17   6    7.85    1.51
  17 -16  -6    8.79    1.79
  -1 -16   6    8.64    1.60
  -1  17  -6    8.70    1.31
   1  16  -6   10.60    1.47
  16 -17  -6   11.64    1.93
 -16  17   6    8.75    1.73
   1 -17   9    0.78    0.37
  -1 -16   9    1.28    0.49
  -1  17  -9    0.93    0.33
   1  16  -9    0.44    0.24
  17 -17  10    4.20    0.78
 -17  17 -10    3.29    0.61
 -17   0  10    4.24    0.98
 -17  17  -7   -0.04    0.18
  17 -17   7   -0.07    0.34
  17 -17   4   25.00    2.50
 -17  17  -4   24.45    2.15
 -17   0   1    0.15    0.49
 -17  17  -1   -0.19    0.26
  17 -17   1    0.22    0.35
  17   0  -1    0.12    0.37
 -17  17   2   56.69    4.70
 -17   0  -2   50.69    5.54
   0 -17   2   49.26    5.47
  17   0   2   55.98    5.39
  17 -17  -2   61.89    5.13
 -17  17   8    7.63    1.47
  17 -17  -8    8.48    1.74
   0 -17   8    5.26    1.27
   0  17  -8    7.51    1.12
  -9  18   0    6.63    0.99
 -18   9   0    5.54    1.16
  18  -9   0    5.86    1.26
   9 -18   0    5.15    1.10
   9   9   0    6.67    1.40
  -9  -9   0    3.66    1.49
 -18   9   3   17.87    2.57
 -18   9  -3   16.13    2.20
   9 -18  -3   27.72    2.78
  -9  18   3   28.58    2.35
  -9  18  -3   28.92    2.44
   9   9  -3   33.76    3.23
  18  -9  -3   18.69    2.57
  18  -9   3   20.46    2.62
  -9  -9   3   27.66    3.60
  18  -9  -6    1.30    0.65
 -18   9  -6    1.46    0.56
  18  -9   6    1.23    0.60
  -9  18  -6    1.04    0.44
   9   9  -6    0.97    0.65
   9 -18   6    1.57    0.70
  -9  -9   6    0.97    0.77
 -18   9   6    1.29    0.69
  -9  18  -9    6.93    0.98
 -18   9   9    8.74    1.64
   9   9  -9   10.12    1.45
  -9  -9   9    9.56    1.85
   9 -18   9    7.09    1.23
  18  -9  -9    6.43    1.40
  -9  18 -12    1.14    0.31
   9   9 -12    1.56    0.46
  -9  -9  12    1.96    0.65
   9 -18  12    0.85    0.35
 -18   8  10    1.35    0.56
 -10  18 -10    0.30    0.27
  10   8 -10    0.47    0.37
  10 -18  10    0.69    0.32
 -10  -8  10    1.62    0.62
  18  -8 -10    0.96    0.42
  18  -8  -7    2.90    0.92
 -18  10  -7    2.66    0.64
  18 -10   7    2.17    0.73
 -10  18  -7    3.15    0.64
 -18   8   7    3.00    0.99
  10 -18   7    1.95    0.70
 -10  -8   7    2.57    1.09
 -10  -8   4    0.33    0.61
  18  -8  -4    0.94    0.62
 -18   8   4   -0.12    0.40
 -18  10  -4    0.75    0.43
  -8  18   4    1.35    0.46
  18 -10   4    0.09    0.37
 -10  18  -4    0.33    0.33
   8 -18  -4    0.80    0.53
  10   8  -4    0.88    0.58
  10 -18   4    0.79    0.51
 -10  -8   1    1.88    0.94
  18  -8  -1    2.86    0.89
  18 -10   1    2.78    0.85
  -8  18   1    2.38    0.61
 -18  10  -1    1.63    0.58
   8  10   1    3.27    0.98
   8 -18  -1    2.53    0.81
  -8 -10  -1    0.87    0.87
  10   8  -1    2.91    0.89
 -18   8   1    3.14    0.85
 -10  18   2    7.74    1.01
  18 -10  -2    4.94    1.17
  10 -18  -2    4.15    1.05
 -18  10   2    3.63    1.01
   8  10  -2    6.60    1.30
  10   8   2    8.09    1.54
  -8 -10   2    6.29    1.58
 -10  -8  -2    5.37    1.60
 -10  18   5    6.74    1.02
  18 -10  -5    3.85    1.14
  -8  18  -5    6.25    0.98
 -18  10   5    4.94    1.27
  10 -18  -5    5.56    1.13
   8  10  -5    6.49    1.26
  -8 -10   5    6.45    1.61
   8 -18   5    5.36    1.15
  18 -10  -8    0.12    0.57
  -8  18  -8    0.05    0.26
   8  10  -8   -0.09    0.32
 -18  10   8    1.07    0.50
  -8 -10   8   -0.40    0.78
   8 -18   8    0.09    0.38
 -18  10  11    1.25    0.55
  -8  18 -11    0.05    0.23
   8 -18  11    0.40    0.28
  18 -10 -11    0.76    0.38
 -11  18 -11    0.28    0.26
  11 -18  11    0.70    0.31
  18  -7 -11    1.09    0.43
 -18   7  11    1.48    0.59
 -11  -7   8    0.15    0.69
 -18  11  -8    0.67    0.34
 -18   7   8    1.45    0.65
 -11  18  -8    0.43    0.30
  18 -11   8    0.50    0.34
  11   7  -8    0.50    0.47
  11 -18   8    0.84    0.47
  18  -7  -8    0.43    0.50
  18  -7  -5    4.53    1.14
 -11  -7   5    5.72    1.41
 -11  18  -5    5.43    0.89
 -18  11  -5    4.62    0.87
  18 -11   5    4.37    0.96
  11 -18   5    4.37    1.03
  11   7  -5    5.90    1.15
 -18   7   5    3.29    1.07
  18  -7  -2    4.87    1.15
  -7  18   2    5.91    0.97
 -18  11  -2    2.33    0.71
 -11  -7   2    5.92    1.48
  18 -11   2    5.26    1.09
 -18   7   2    4.27    1.09
  -7 -11  -2    4.12    1.37
   7  11   2    8.09    1.46
   7 -18  -2    5.89    1.21
  11   7  -2    4.80    1.16
 -18  11   1    4.03    1.00
 -11  18   1    4.50    0.78
  -7  18  -1    5.22    0.94
 -11  -7  -1    5.30    1.40
  18 -11  -1    3.45    0.97
  11 -18  -1    4.37    0.97
   7  11  -1    4.82    1.12
  -7 -11   1    4.72    1.41
   7 -18   1    2.72    0.92
 -18  11   4    0.11    0.40
  18 -11  -4    0.98    0.58
 -11  18   4    0.29    0.34
  -7  18  -4    0.06    0.27
  11 -18  -4    0.54    0.48
   7  11  -4    0.20    0.38
  -7 -11   4    0.16    0.54
   7 -18   4    0.63    0.48
  18 -11  -7    1.09    0.83
  -7  18  -7    2.73    0.64
   7  11  -7    2.68    0.78
  -7 -11   7    1.89    0.95
   7 -18   7    3.49    0.94
 -18  11  10    0.68    0.40
  -7  18 -10    0.87    0.29
  -7 -11  10    1.07    0.50
   7  11 -10    1.06    0.42
   7 -18  10    0.27    0.21
 -12  18 -12    0.74    0.26
  12   6 -12    0.90    0.38
 -18   6  12    0.98    0.49
  18  -6 -12    1.05    0.42
 -12  -6  12    1.48    0.59
 -18  12  -9    4.49    0.71
  18 -12   9    3.43    0.81
 -18  12  -6    0.11    0.28
 -12  -6   6    0.44    0.51
  18 -12   6    0.07    0.34
  12   6  -6    0.10    0.40
  18  -6  -3    3.45    1.05
  -6  18   3    7.25    1.10
 -12  18  -3    4.43    0.79
 -18  12  -3    4.52    0.84
   6 -18  -3    4.64    1.05
  12 -18   3    3.92    0.93
 -18   6   3    5.55    1.28
  18  -6   0    4.27    1.09
 -12  18   0    4.47    0.78
 -18  12   0    3.24    0.82
  -6  18   0    7.06    1.12
  18 -12   0    3.90    0.97
 -12  -6   0    4.10    1.30
 -18   6   0    3.74    1.07
  -6 -12   0    4.22    1.37
  12 -18   0    3.55    0.89
   6  12   0    6.54    1.34
  12   6   0    7.43    1.47
 -12  18   3   16.99    1.74
  -6  18  -3   18.47    1.86
   6 -18   3   13.93    2.09
 -18  12   3   13.31    2.02
   6  12  -3   18.65    2.19
  -6 -12   3   14.78    2.56
  18  -6   3   14.27    2.18
  18 -12  -3   15.86    2.24
  12 -18  -3   15.84    2.03
  18 -12  -6    0.12    0.46
 -12  18   6   -0.09    0.41
  18  -6   6    1.13    0.53
  12 -18  -6    0.12    0.44
 -18  12   6    0.24    0.45
  -6 -12   6    1.07    0.73
   6  12  -6    0.28    0.43
 -18   6  -6    1.08    0.53
  18 -12  -9    3.31    0.93
 -18  12   9    3.73    0.97
  -6  18 -12    1.06    0.31
  -6 -12  12    1.68    0.60
   6  12 -12    1.64    0.48
   6 -18  12    0.52    0.29
 -13  -5  10    0.95    0.47
 -13  18 -10    0.17    0.23
  13 -18  10    0.51    0.33
  13   5 -10    0.73    0.34
 -18   5   7    0.66    0.56
 -13  -5   7    0.71    0.65
 -13  18  -7    0.95    0.33
  13 -18   7    1.02    0.44
  13   5  -7    1.11    0.61
  18  -5  -7    0.11    0.46
  18  -5  -4    1.17    0.64
 -13  18  -4    1.35    0.45
  18 -13   4    0.72    0.46
 -13  -5   4    1.30    0.72
 -18   5   4    1.58    0.74
  13 -18   4    1.24    0.51
  13   5  -4    0.82    0.56
  18  -5  -1    1.81    0.79
 -18  13  -1    2.03    0.62
  18 -13   1    3.07    0.82
  -5  18   1    2.86    0.77
 -13  -5   1    1.96    0.88
   5 -18  -1    3.19    0.97
  13   5  -1    2.75    0.90
 -18   5   1    2.21    0.89
 -18  13   2    3.00    0.79
 -13  18   2    3.21    0.66
  18 -13  -2    4.05    1.09
  13 -18  -2    3.39    0.86
  -5 -13   2    4.92    1.34
 -13  -5  -2    1.45    0.95
   5  13  -2    4.36    1.08
  13   5   2    2.99    1.01
  18  -5   5    0.52    0.54
  -5  18  -5    0.75    0.38
  -5 -13   5    0.99    0.78
   5  13  -5    0.84    0.57
 -18   5  -5    0.47    0.52
   5 -18   5    1.06    0.61
   5 -18   8   -0.44    0.62
 -18  13   8    0.68    0.40
  18 -13  -8    0.63    0.55
  -5  18  -8    0.58    0.39
   5 -18  11    0.97    0.41
  -5 -13  11    1.70    0.60
  -5  18 -11    0.91    0.31
   5  13 -11    0.95    0.36
 -14  -4  11    2.62    0.78
 -14  18 -11    1.17    0.30
  14 -18  11    1.01    0.35
 -18   4  11    2.52    0.79
  14   4 -11    0.79    0.36
  18  -4 -11    1.34    0.48
 -18  14  -8    0.04    0.18
 -14  -4   8    0.54    0.50
 -14  18  -8    0.31    0.23
  18 -14   8    0.06    0.28
  14 -18   8    0.14    0.33
  14   4  -8    0.20    0.37
 -18  14  -5    4.26    0.70
 -14  18  -5    4.64    0.75
  18 -14   5    4.22    0.85
 -14  -4   5    2.95    1.11
  14 -18   5    3.47    0.80
  14   4  -5    4.69    1.14
  18  -4  -2    1.22    0.62
 -18  14  -2    0.88    0.39
 -14  18  -2    1.10    0.39
  -4  18   2    1.89    0.72
  18 -14   2    1.14    0.52
  14 -18   2    1.20    0.56
 -14  -4   2    1.37    0.78
 -18   4   2    1.08    0.71
   4 -18  -2    1.15    0.71
  14   4  -2    1.00    0.61
  18  -4   1    2.00    0.80
 -18  14   1    1.34    0.54
 -14  18   1    2.42    0.57
  18 -14  -1    1.74    0.73
  -4 -14   1    1.27    0.90
  -4  18  -1    3.01    0.76
  14 -18  -1    2.28    0.71
   4  14  -1    2.81    0.87
 -14  -4  -1    0.86    0.83
  14   4   1    2.34    0.84
   4 -18   1    2.61    0.90
 -18   4  -1    1.08    0.72
  18  -4   4    0.26    0.52
 -14  18   4    0.15    0.38
  18 -14  -4    0.12    0.37
 -18   4  -4    0.67    0.56
  14 -18  -4    0.10    0.41
  -4 -14   4    0.16    0.58
  -4  18  -4    0.16    0.36
 -18  14   4    0.75    0.49
   4  14  -4    0.20    0.33
   4 -18   4   -0.13    0.41
   4 -18   7    3.41    0.99
  18 -14  -7    3.94    1.18
  -4 -14   7    4.74    1.33
  -4  18  -7    4.27    0.88
 -18  14   7    3.41    1.02
   4 -18  10    1.07    0.43
  -4 -14  10    1.85    0.63
  -4  18 -10    1.36    0.40
   4  14 -10    1.27    0.43
 -15  18  -9    0.04    0.22
 -15  -3   9    0.79    0.42
  15 -18   9    0.67    0.27
  15   3  -9    0.30    0.23
 -18   3   9    1.14    0.53
  18  -3  -9    0.68    0.34
 -18   3   6    0.27    0.26
 -18  15  -6    0.13    0.21
 -15  18  -6   -0.09    0.19
  18 -15   6   -0.07    0.31
  15 -18   6    0.15    0.28
  15   3  -6    0.21    0.39
  18  -3  -6    0.10    0.39
 -18  15  -3    2.24    0.53
 -15  18  -3    2.14    0.50
 -18   3   3    2.35    0.94
  18 -15   3    2.89    0.67
  15 -18   3    2.00    0.66
 -15  -3   3    2.19    0.98
  15   3  -3    2.02    0.77
  18  -3  -3    2.09    0.81
  18  -3   0    3.92    1.12
 -18  15   0    4.25    0.86
  -3 -15   0    3.05    1.14
  -3  18   0    6.28    1.10
 -15  18   0    4.24    0.75
  18 -15   0    5.65    1.11
   3  15   0    7.67    1.32
 -18   3   0    4.34    1.22
 -15  -3   0    4.05    1.50
  15   3   0    5.53    1.22
   3 -18   0    3.97    1.20
   3 -18   3    0.29    0.66
 -18  15   3    0.25    0.35
 -15  18   3    0.65    0.35
  18 -15  -3   -0.12    0.41
  -3 -15   3   -0.15    0.64
  15 -18  -3    0.09    0.31
  -3  18  -3    0.08    0.35
   3  15  -3    0.20    0.45
   3 -18   6    0.12    0.44
 -15  18   6    0.29    0.37
  18 -15  -6    0.39    0.49
  15 -18  -6    1.50    0.60
 -18  15   6    0.11    0.43
  -3 -15   6    0.52    0.34
  -3  18  -6    0.41    0.40
   3  15  -6    0.57    0.43
 -18  15   9    2.57    0.81
  18 -15  -9    3.29    0.88
   3 -18   9    2.01    0.61
  -3 -15   9    1.94    0.70
  -3  18  -9    2.16    0.59
   3  15  -9    1.70    0.56
 -18  16 -10    0.31    0.15
 -16  18 -10    0.61    0.21
 -16  -2  10    1.14    0.50
  18 -16  10    0.94    0.32
 -18   2  10    0.64    0.38
  16   2 -10    0.96    0.40
  18  -2 -10    1.87    0.55
 -18  16  -7    2.74    0.57
  18 -16   7    3.34    0.76
 -18  16  -4    0.22    0.22
 -16  18  -4    0.22    0.26
  18 -16   4   -0.07    0.27
  16 -18   4    0.07    0.27
  18  -2  -4    0.11    0.39
 -16  18  -1    4.71    0.80
 -18   2   1    4.48    1.29
  -2  18   1    7.07    1.21
  16 -18   1    5.04    1.00
 -16  -2   1    4.39    1.33
   2 -18  -1    6.58    1.53
  16   2  -1    6.27    1.29
  18  -2  -1    4.37    1.15
  18  -2   2    2.25    0.90
   2 -18   2    2.03    1.02
 -16  18   2    1.42    0.53
  -2 -16   2    1.71    0.91
  16 -18  -2    1.91    0.71
  -2  18  -2    2.01    0.69
   2  16  -2    2.25    0.76
 -18   2  -2    2.97    1.04
  16   2   2    1.90    0.81
 -16  -2  -2    2.23    1.07
   2 -18   5    5.44    1.33
 -16  18   5    5.01    1.08
  18 -16  -5    5.48    1.36
  16 -18  -5    3.39    1.12
  -2  18  -5    6.04    1.14
 -18  16   5    4.30    1.16
  18 -16  -8    0.67    0.40
  -2 -16   8    0.81    0.41
 -18  16   8    1.23    0.54
   2  16  -8   -0.08    0.26
 -18  17  -8    0.24    0.24
 -17  18  -8    0.23    0.23
  18 -17   8    0.38    0.27
  17 -18   8   -0.06    0.33
 -17  -1   8    1.49    0.57
 -18   1   8    0.73    0.43
  17   1  -8    1.37    0.48
  18  -1  -8    0.40    0.32
 -18  17  -5    4.80    0.74
 -17  18  -5    5.01    0.74
  18 -17   5    3.85    0.88
  17 -18   5    4.13    0.87
 -17  -1   5    5.83    1.52
  17   1  -5    5.12    1.18
  18  -1  -5    4.11    1.08
 -18   1   2    2.66    1.00
 -18  17  -2    1.81    0.49
 -17  18  -2    1.84    0.47
  18 -17   2    1.59    0.56
  17 -18   2    1.32    0.54
 -17  -1   2    1.39    0.74
  17   1  -2    1.82    0.73
  18  -1  -2    1.05    0.68
   1 -18   1    3.93    1.43
 -18  17   1    3.07    0.77
 -18   1  -1    3.99    1.27
  -1  18  -1    8.27    1.32
  18 -17  -1    3.92    0.98
  17   1   1    2.61    0.95
  18  -1   1    4.42    1.18
 -17  -1  -1    3.28    1.15
 -18  17   4    0.09    0.35
 -17  18   4    0.17    0.39
  18 -17  -4    0.37    0.59
  17 -18  -4    0.82    0.56
   1 -18   7    2.02    0.81
  18 -17  -7    4.29    1.03
 -18  17   7    3.37    0.86
  17 -18  -7    2.02    0.89
  -1  18  -7    2.06    0.69
 -17  18   7    3.72    0.91
   1 -18  10    0.38    0.25
  -1 -17  10    0.67    0.33
  -1  18 -10    0.59    0.26
   1  17 -10    0.26    0.18
 -18  18  -9    0.78    0.23
  18 -18   9    0.37    0.20
 -18   0   9    0.36    0.28
  18   0  -9    0.94    0.40
 -18  18  -6    0.16    0.22
  18 -18   6    0.40    0.26
  18   0  -6    0.62    0.41
 -18  18  -3   -0.04    0.24
  18 -18   3    0.21    0.33
  18   0  -3    0.22    0.41
 -18   0   3    0.75    0.44
 -18   0   0    1.43    0.85
 -18  18   0    1.12    0.45
  18 -18   0    1.68    0.63
  18   0   0    2.31    0.76
   0 -18   3    0.14    0.56
 -18  18   3   -0.08    0.45
  18 -18  -3   -0.22    0.52
   0  18  -3    0.30    0.39
  18 -18  -6    0.84    0.46
 -18  18   6    1.58    0.58
   0 -18   9    0.60    0.32
   0  18  -9    0.61    0.27
 -19   9  11    1.62    0.62
 -10  19 -11    0.67    0.24
  10   9 -11    0.90    0.36
 -10  -9  11    1.34    0.54
  19  -9 -11    1.53    0.52
 -19  10  -8    8.24    1.21
 -19   9   8    7.30    1.64
  19  -9  -5    0.24    0.44
 -19  10  -5    0.22    0.24
  19 -10   5    0.10    0.37
  10   9  -5    0.45    0.45
 -10  -9   5    0.18    0.73
 -19   9   5   -0.13    0.48
 -19   9   2   21.46    2.67
   9 -19  -2   25.61    2.83
  -9  19   2   30.37    2.50
 -10  19  -2   27.25    2.35
  10 -19   2   17.95    2.49
  10   9  -2   27.76    3.11
 -19  10  -2   17.35    2.45
  19  -9  -2   22.21    2.70
  19 -10   2   19.32    2.60
 -10  -9   2   21.87    3.38
  19 -10  -1    3.42    0.98
  19  -9   1    2.49    0.87
  -9  19  -1    2.75    0.65
 -19  10   1    2.43    0.82
   9  10  -1    2.09    0.81
  10   9   1    3.87    1.05
   9 -19   1    2.22    0.84
  -9 -10   1    2.72    1.24
 -10  -9  -1    1.85    1.06
 -19   9  -1    2.34    0.81
  10 -19  -4   38.54    3.97
 -10  19   4   53.74    3.79
  -9  19  -4   42.06    3.59
   9  10  -4   51.86    4.41
  19  -9   4   34.13    3.97
  -9 -10   4   33.67    4.40
  19 -10  -7    0.24    0.39
 -19   9  -7    0.24    0.36
  19  -9   7    1.36    0.50
  -9  19  -7    0.39    0.31
   9  10  -7    0.10    0.51
 -19  10   7    1.21    0.53
  -9 -10   7   -0.15    0.40
   9 -19   7    0.29    0.38
 -19  10  10    2.28    0.74
   9  10 -10    2.34    0.67
  19 -10 -10    2.54    0.71
 -11  19  -9    5.22    0.82
 -19   8   9    7.71    1.37
  11   8  -9    5.86    1.12
  11 -19   9    3.57    0.91
 -11  -8   9    4.49    1.30
  19  -8  -9    3.35    1.01
  19  -8  -6    1.07    0.58
 -19  11  -6    0.07    0.32
  19 -11   6    0.27    0.33
 -11  19  -6    0.43    0.30
 -19   8   6    0.79    0.55
  11   8  -6    0.44    0.46
  11 -19   6    0.09    0.37
 -11  -8   6    1.47    0.64
 -19  11  -3   17.39    2.21
   8 -19  -3   28.68    2.94
  -8  19   3   31.04    2.50
  11   8  -3   26.60    2.91
  19  -8  -3   23.70    2.80
  19 -11   3   19.21    2.49
 -19   8   3   20.26    2.74
 -11  -8   3   20.62    3.11
 -11  -8   0    0.76    0.87
  19  -8   0    1.33    0.64
  19 -11   0    1.49    0.68
 -11  19   0    1.60    0.52
 -19  11   0    1.11    0.59
  11 -19   0    1.38    0.65
   8  11   0    2.39    0.84
  -8 -11   0    1.90    1.01
  11   8   0    2.02    0.80
  19 -11  -3   11.64    2.00
 -19  11   3   12.30    1.95
  -8  19  -3   17.88    1.81
   8 -19   3   14.35    2.16
 -19   8  -3   12.49    1.95
   8  11  -3   20.14    2.33
  19  -8   3   15.28    2.19
  -8 -11   3   15.67    2.56
  19 -11  -6    0.85    0.60
 -19  11   6    0.39    0.46
  19  -8   6    1.20    0.50
  -8  19  -6    0.94    0.39
   8  11  -6    0.69    0.47
  -8 -11   6    0.75    0.66
   8 -19   6    0.70    0.51
 -19   8  -6    1.13    0.61
  -8  19  -9    6.89    0.98
   8 -19   9    7.76    1.28
 -19  11   9    6.84    1.52
   8  11  -9    7.48    1.25
  -8 -11   9    5.05    1.49
  19 -11  -9    6.74    1.48
 -19   7  10    3.31    0.90
 -12  -7   7    0.15    0.40
 -19  12  -7    0.47    0.30
 -12  19  -7    0.41    0.29
  19 -12   7    0.29    0.39
 -19   7   7    1.44    0.57
  12   7  -7    0.10    0.42
  12 -19   7    0.25    0.33
  19  -7  -7    0.56    0.51
 -19  12  -4   12.81    1.64
  19 -12   4   12.78    1.80
 -12  -7   4   14.72    2.43
 -12  19  -1    4.13    0.77
 -19  12  -1    2.76    0.75
 -12  -7   1    3.78    1.32
  19 -12   1    3.71    0.96
  -7  19   1    4.94    0.90
  -7 -12  -1    4.42    1.49
  12 -19   1    3.73    0.96
   7 -19  -1    2.94    1.02
  12   7  -1    3.60    0.99
  12 -19  -2   31.05    3.23
 -12  19   2   38.77    2.97
 -19   7  -2   23.04    3.09
  -7  19  -2   39.40    3.12
   7 -19   2   30.36    3.46
 -19  12   2   28.94    3.25
   7  12  -2   39.68    3.60
  -7 -12   2   27.58    3.85
  19  -7   2   27.24    3.34
  19 -12  -2   27.81    3.35
  19 -12  -5    0.35    0.46
  19  -7   5   -0.12    0.49
  -7 -12   5    0.99    0.75
   7  12  -5    0.20    0.37
 -19  12   5    0.48    0.50
 -19   7  -5    0.43    0.47
  19 -12  -8    2.74    0.97
  -7  19  -8    2.32    0.59
 -19  12   8    2.46    0.78
   7 -19   8    2.68    0.67
  -7  19 -11    0.96    0.30
  -7 -12  11    1.04    0.49
   7  12 -11    1.43    0.45
   7 -19  11    1.61    0.49
 -13  19 -11    0.94    0.26
  13   6 -11    0.48    0.29
  13 -19  11    0.56    0.26
 -19   6  11    0.84    0.45
  19  -6 -11    1.23    0.45
 -13  -6  11    1.28    0.56
 -13  -6   8    4.78    1.14
 -19   6   8    4.68    1.07
 -19  13  -8    3.95    0.73
 -13  19  -8    3.52    0.67
  19 -13   8    4.15    0.86
  13 -19   8    4.28    0.98
  13   6  -8    6.02    1.14
  19  -6  -8    4.54    1.05
 -13  19  -5    0.83    0.34
 -19   6   5    1.05    0.49
  13 -19   5    0.48    0.42
  19  -6  -5    0.46    0.51
 -13  -6   2   23.60    3.41
 -19  13  -2   26.49    2.66
  13 -19   2   23.75    2.80
  -6  19   2   41.67    3.12
   6 -19  -2   35.03    3.48
  13   6  -2   36.55    3.54
 -19   6   2   26.65    3.24
  19 -13   2   24.47    2.86
  19  -6   1    0.74    0.59
 -19  13   1    1.04    0.52
  19 -13  -1    0.69    0.57
 -13  19   1    1.45    0.46
 -13  -6  -1    1.20    0.99
 -19   6  -1    0.99    0.64
  -6  19  -1    1.57    0.60
  -6 -13   1    1.11    0.91
  13 -19  -1    1.53    0.62
   6  13  -1    2.25    0.86
  13   6   1    2.55    0.94
   6 -19   1    1.46    0.80
 -13  19   4   22.41    2.32
 -19   6  -4   17.54    2.50
  -6  19  -4   27.58    2.38
 -19  13   4   17.52    2.43
   6 -19   4   17.76    2.47
   6  13  -4   25.06    2.70
  -6 -13   4   22.43    3.20
  19  -6   4   19.75    2.67
  19 -13  -4   21.44    2.73
  13 -19  -4   21.44    2.51
  19 -13  -7    0.38    0.55
 -19  13   7    0.39    0.30
  -6  19  -7    0.25    0.28
  -6 -13   7    0.15    0.58
   6  13  -7    0.57    0.45
   6 -19   7    0.63    0.48
  19 -13 -10    3.18    0.89
  -6  19 -10    3.31    0.66
  -6 -13  10    4.31    1.01
 -19  13  10    3.75    0.97
   6  13 -10    3.40    0.82
   6 -19  10    2.56    0.68
 -14  -5   9    3.80    0.96
 -14  19  -9    2.05    0.49
  14   5  -9    4.10    0.89
  19  -5  -9    2.46    0.70
 -19   5   9    3.18    0.87
 -19  14  -6    2.48    0.59
 -19   5   6    1.99    0.95
 -14  -5   6    3.31    1.08
 -14  19  -6    3.36    0.63
  19 -14   6    3.17    0.74
  14 -19   6    3.69    0.78
  14   5  -6    4.80    1.08
  19  -5  -6    3.61    0.97
 -14  -5   3    7.93    1.77
  14   5  -3    9.52    1.66
  19  -5   0    6.18    1.37
 -14  19   0    6.80    0.98
  -5 -14   0    6.81    1.72
 -14  -5   0    5.83    1.55
  14 -19   0    6.16    1.17
  14   5   0    9.63    1.64
   5  14   0    8.77    1.58
 -19   5   0    5.67    1.39
 -14  19   3    6.75    1.03
  19  -5   3    6.57    1.41
  19 -14  -3    7.07    1.49
  -5  19  -3    5.43    1.01
 -19   5  -3    4.89    1.25
  14 -19  -3    5.94    1.19
  -5 -14   3    4.89    1.59
   5  14  -3    6.94    1.34
   5 -19   3    4.62    1.23
 -19  14   3    5.82    1.27
  19 -14  -6    2.74    1.00
  14 -19  -6    5.11    1.13
  -5  19  -6    3.82    0.78
  -5 -14   6    2.87    1.10
   5  14  -6    4.14    1.00
 -19  14   6    3.57    1.02
   5 -19   6    3.02    0.98
  19 -14  -9    5.76    1.22
  -5  19  -9    4.30    0.83
   5  14  -9    6.04    1.03
 -19  14   9    4.26    1.07
   5 -19   9    4.16    0.95
 -15  -4  10    1.03    0.48
 -15  19 -10    0.64    0.22
  15 -19  10    1.18    0.36
  15   4 -10    0.63    0.32
 -19   4  10    1.12    0.52
  19  -4 -10    0.86    0.38
 -19   4   7    2.97    0.84
 -19  15  -7    2.09    0.48
 -15  19  -7    1.92    0.49
  19 -15   7    1.85    0.57
  15 -19   7    1.04    0.47
  19  -4  -7    0.92    0.63
 -15  19  -4    3.74    0.66
 -19  15  -4    2.90    0.64
 -19   4   4    3.83    1.10
  15 -19   4    2.73    0.82
  19  -4  -4    4.49    1.08
  19  -4  -1    6.62    1.40
 -19  15  -1    5.27    0.97
  -4  19   1    8.36    1.34
  19 -15   1    5.02    1.10
 -15  -4   1    5.97    1.59
 -19   4   1    4.01    1.25
   4 -19  -1    7.08    1.58
  15   4  -1    5.42    1.25
  19  -4   2    7.18    1.55
 -19  15   2    8.84    1.35
 -15  19   2    9.22    1.18
  -4  19  -2   10.79    1.46
  -4 -15   2    7.36    1.82
   4  15  -2   11.52    1.70
  15 -19  -2    6.63    1.25
  19 -15  -2    8.95    1.59
 -19   4  -2    7.06    1.55
   4 -19   2    7.63    1.57
 -15  19   5    4.15    0.95
  19 -15  -5    1.78    0.96
  15 -19  -5    2.71    0.90
  -4 -15   5    2.84    1.11
  -4  19  -5    3.29    0.78
   4  15  -5    4.46    1.05
   4 -19   5    3.40    1.10
   4 -19   8    1.36    0.52
  -4 -15   8    1.97    0.65
  -4  19  -8    0.63    0.32
   4  15  -8    0.70    0.35
 -19  16  -8    4.53    0.73
 -16  19  -8    5.53    0.81
 -16  -3   8    5.22    1.13
  19 -16   8    4.27    0.86
  19  -3  -8    6.42    1.09
  16   3  -8    6.23    1.28
 -19   3   8    6.15    1.28
 -19   3   5    0.41    0.32
 -16  19  -5    0.04    0.20
  19 -16   5   -0.06    0.22
  16 -19   5    0.14    0.30
 -16  -3   5    0.68    0.40
  16   3  -5    0.64    0.35
  19  -3  -5    0.32    0.31
  16 -19   2   18.27    2.10
 -19  16  -2   16.11    1.80
 -16  19  -2   17.98    1.75
 -16  -3   2   15.44    2.65
 -19   3   2   16.19    2.52
  16   3  -2   20.52    2.53
  19 -16   2   15.58    1.96
  19  -3   1    0.65    0.64
 -19  16   1    0.29    0.35
  19 -16  -1    1.40    0.57
  -3  19  -1    0.90    0.51
 -19   3  -1    0.58    0.54
 -16  -3  -1    2.27    0.87
   3 -19   1   -0.14    0.63
  -3  19  -4   25.03    2.43
   3 -19   4   20.61    2.78
 -19  16   4   18.02    2.49
  19 -16  -4   18.61    2.66
   3 -19   7    0.34    0.34
  -3 -16   7    1.48    0.59
  -3  19  -7    0.23    0.35
   3  16  -7    0.61    0.31
 -19  16   7    0.87    0.44
  -3 -16  10    3.45    0.86
 -19  17  -9    1.10    0.28
 -17  19  -9    0.65    0.31
 -17  -2   9    2.13    0.68
  19 -17   9    1.72    0.43
  17 -19   9    1.25    0.38
 -19   2   9    1.86    0.66
  17   2  -9    0.81    0.38
  19  -2  -9    0.87    0.39
 -19  17  -6    5.22    0.76
 -17  19  -6    4.34    0.71
  19 -17   6    4.45    0.89
  17 -19   6    3.25    0.84
 -17  -2   6    4.48    1.20
  17   2  -6    7.69    1.33
 -19   2   6    6.67    1.32
  19  -2  -6    4.68    1.06
 -19   2   3    2.89    0.94
 -19  17  -3    1.89    0.49
 -17  19  -3    2.09    0.49
  19 -17   3    1.17    0.53
  17 -19   3    1.04    0.54
 -17  -2   3    1.01    0.77
  17   2  -3    1.72    0.82
  19  -2  -3    1.26    0.71
 -19  17   0    7.93    1.18
 -17  19   0    7.38    1.04
 -19   2   0    6.29    1.59
 -17  -2   0    7.22    1.83
  17   2   0    8.84    1.64
  19 -17   0   10.32    1.51
  19  -2   0    6.89    1.46
 -19  17   3    1.44    0.70
 -17  19   3    2.46    0.76
  -2 -17   3    0.85    0.79
  19 -17  -3    3.75    1.01
  17 -19  -3    2.54    0.94
   2  17  -3    3.37    0.86
 -17  19   6    5.80    1.16
  19 -17  -6    4.93    1.16
  17 -19  -6    5.63    1.34
 -19  17   6    4.37    1.12
  -2 -17   9    1.95    0.61
  -2  19  -9    1.58    0.47
   2  17  -9    1.73    0.48
 -19  18  -7    2.16    0.48
  19 -18   7    1.96    0.60
 -19  18  -4    0.55    0.28
 -18  19  -4    0.48    0.29
  19 -18   4    0.33    0.28
  18 -19   4    0.28    0.35
 -18  -1   4    1.14    0.57
  18   1  -4    0.88    0.41
 -19  18  -1    7.22    1.11
 -19   1   1    7.65    1.77
 -18  19  -1    8.45    1.07
  19  -1  -1    8.47    1.61
  19 -18   1    9.11    1.34
  18 -19   1    7.76    1.26
   1 -19   2    1.53    0.78
  -1 -18   2    1.72    0.68
 -19  18   2    0.84    0.41
 -18  19   2    0.44    0.37
  19 -18  -2    0.94    0.55
  18 -19  -2    0.71    0.52
  -1  19  -2    0.89    0.47
   1  18  -2    0.65    0.50
   1 -19   5    2.86    1.04
 -18  19   5    3.72    0.82
  -1 -18   5    4.68    1.10
  18 -19  -5    4.74    1.07
  -1  19  -5    3.95    1.01
   1  18  -5    4.13    0.82
   1 -19   8    0.96    0.42
  -1 -18   8    0.51    0.30
  -1  19  -8    1.04    0.37
   1  18  -8    0.28    0.19
  19 -19   8    6.30    0.93
 -19  19  -8    4.20    0.69
 -19  19  -5    0.08    0.24
  19 -19   5    0.07    0.30
  19   0  -5    0.63    0.34
 -19  19  -2    6.82    0.99
  19 -19   2    6.61    1.14
  19   0  -2    8.10    1.52
 -19   0   2    6.06    1.63
 -19  19   4   12.97    1.95
   0 -19   4   15.57    2.40
  19 -19  -4   17.07    2.41
   0 -19   7    1.03    0.46
   0  19  -7    0.55    0.28
 -10  20   0   76.36    5.34
  10 -20   0   55.50    5.49
 -10 -10   0   65.61    6.92
  20 -10  -3    0.24    0.41
  20 -10   3    0.92    0.48
 -10  20   3    0.07    0.21
 -20  10   3    0.24    0.50
  10 -20  -3    0.11    0.40
 -20  10  -3    0.50    0.50
  10  10  -3    0.74    0.54
 -10 -10   3    0.36    0.66
 -10  20  -6   19.53    1.91
  10 -20   6   13.77    2.08
  10  10  -6   22.65    2.47
  20 -10  -6   19.83    2.51
 -20  10   6   16.31    2.54
 -10 -10   6   18.42    2.86
 -20  10   9    0.80    0.44
  20 -10  -9    1.23    0.49
 -20   9  10    1.33    0.56
 -11  20 -10    0.99    0.30
  11   9 -10    1.80    0.53
 -11  -9  10    1.64    0.63
  11 -20  10    1.03    0.38
  20  -9 -10    1.05    0.44
  20  -9  -7    2.67    0.76
 -20  11  -7    1.07    0.52
  20 -11   7    1.32    0.47
 -11  20  -7    1.77    0.51
 -20   9   7    1.31    0.55
  11 -20   7    1.68    0.63
 -20   9   4    1.93    0.87
  20  -9  -4    1.90    0.84
  11   9  -4    2.92    1.00
 -11  -9   4    2.60    1.18
  -9  20   1    8.01    1.17
 -11  20  -1    7.10    1.04
  11 -20   1    5.22    1.19
  11 -20  -2    9.16    1.49
 -11  20   2    9.13    1.19
 -20  11   2    5.43    1.27
  20 -11  -2    7.04    1.47
  -9  20  -2    9.21    1.23
  20  -9   2    6.55    1.43
   9  11  -2   10.45    1.69
  -9 -11   2    7.25    1.81
 -20   9  -2    6.45    1.28
   9 -20   2    5.65    1.32
  20 -11  -5    1.93    0.82
 -20   9  -5    0.93    0.58
 -20  11   5    1.77    0.78
  20  -9   5    3.83    1.00
  -9  20  -5    3.11    0.67
   9  11  -5    1.99    0.76
  -9 -11   5    2.03    0.96
  20 -11  -8    1.20    0.51
  -9  20  -8    0.86    0.39
 -20  11   8    1.46    0.59
   9  11  -8    2.10    0.61
  -9 -11   8    2.15    0.85
   9 -20   8    2.13    0.59
 -20  11  11    2.04    0.70
  20 -11 -11    1.40    0.52
 -20  12  -8    1.02    0.34
 -20   8   8    1.71    0.63
  20 -12   8    0.79    0.35
 -12  20  -8    0.36    0.32
  12   8  -8    1.42    0.56
  12 -20   8    0.88    0.35
 -12  -8   8    1.34    0.63
  20  -8  -8    1.51    0.53
 -12  -8   5    2.33    1.04
  20  -8  -5   -0.12    0.85
 -20  12  -5    1.42    0.53
  20 -12   5    1.29    0.58
 -12  20  -5    2.02    0.52
  12 -20   5    1.91    0.67
 -20   8   5    1.71    0.64
  12   8  -5    1.92    0.74
 -12  -8   2    5.06    1.54
  20  -8  -2    5.99    1.43
 -20   8   2    8.06    1.51
  20 -12   2    4.21    1.15
  12   8  -2    9.61    1.67
 -12  20   1    5.42    0.89
  20  -8   1    5.85    1.29
  20 -12  -1    4.94    1.24
 -20  12   1    5.63    1.17
  -8  20  -1    6.13    1.06
  12 -20  -1    4.48    1.10
   8 -20   1    7.29    1.45
 -20   8  -1    3.00    1.03
  20 -12  -4    1.31    0.74
  20  -8   4    2.20    0.80
 -12  20   4    2.81    0.68
  -8  20  -4    2.62    0.63
  12 -20  -4    3.03    0.82
 -20   8  -4    1.89    0.70
   8  12  -4    2.97    0.93
  -8 -12   4    3.69    1.26
 -20  12   4    1.59    0.72
   8 -20   4    2.68    0.88
  20 -12  -7    2.55    0.74
  -8  20  -7    0.79    0.36
   8 -20   7    0.87    0.54
 -20  12   7    1.99    0.68
 -20  12  10    0.81    0.44
  -8  20 -10    0.73    0.25
  -8 -12  10    0.93    0.47
   8 -20  10    0.98    0.38
  20 -12 -10    0.69    0.37
 -20   7   9    0.40    0.30
 -13  20  -9   -0.04    0.20
  13 -20   9    0.76    0.32
  20  -7  -9    0.40    0.27
 -13  -7   9    0.76    0.45
 -20  13  -6    7.31    1.18
 -13  -7   6   10.44    1.96
  13   7  -6   12.40    1.74
  20 -13   6    8.92    1.42
  20  -7  -3    1.70    0.74
 -20  13  -3    1.12    0.50
 -13  -7   3    1.66    0.85
  20 -13   3    1.21    0.64
  13 -20   3    1.33    0.54
  13   7  -3    1.39    0.70
 -20   7   3    0.80    0.59
 -20  13   0   53.28    4.36
  13 -20   0   45.83    4.35
 -13  20   0   49.49    3.92
   7 -20   0   44.45    4.64
  20 -13   0   39.42    4.45
  20  -7   3    0.98    0.46
  20 -13  -3    0.12    0.45
 -13  20   3    0.55    0.38
  13 -20  -3   -0.10    0.49
 -20  13   3    0.62    0.45
  -7 -13   3    1.65    0.72
   7  13  -3    0.35    0.43
 -20   7  -3    1.03    0.45
  20 -13  -6   11.01    1.91
  -7  20  -6   12.76    1.47
   7 -20   6   10.77    1.73
   7  13  -6   12.39    1.73
  -7 -13   6   11.93    2.20
 -20  13   6   11.18    1.99
  20 -13  -9    1.60    0.59
  -7  20  -9    0.72    0.37
  -7 -13   9    1.43    0.60
   7  13  -9    1.49    0.48
 -20  13   9    2.19    0.73
   7 -20   9    1.06    0.41
 -14  -6   7    2.91    0.86
 -20   6   7    1.58    0.61
 -14  20  -7    1.26    0.41
  14 -20   7    1.25    0.57
  14   6  -7    2.40    0.70
  20  -6  -7    2.27    0.66
  20  -6  -4    7.47    1.41
 -14  20  -4    7.27    0.97
 -20  14  -4    5.47    0.97
 -14  -6   4    4.48    1.45
  20 -14   4    5.00    1.07
 -20   6   4    5.69    1.35
  14 -20   4    3.89    1.01
  14   6  -4    7.07    1.39
  20  -6  -1    0.86    0.61
 -20  14  -1    1.41    0.51
 -14  20  -1    1.39    0.44
  20 -14   1    1.08    0.63
 -14  -6   1    1.21    0.86
  -6  20   1    2.09    0.69
  14 -20   1    1.21    0.57
   6 -20  -1    0.82    0.75
  14   6  -1    1.84    0.78
 -20   6   1    0.53    0.56
 -14  20   2   14.34    1.59
  -6  20  -2   17.89    1.89
  20 -14  -2   10.53    1.92
 -20   6  -2   10.26    1.92
   6 -20   2   14.01    2.19
   6  14  -2   16.07    2.17
  -6 -14   2   13.09    2.50
 -20  14   2   14.23    2.01
  20  -6   2   13.03    2.08
  14 -20  -2   12.94    1.85
  14 -20  -5    0.12    0.82
  -6  20  -5    1.47    0.53
  -6 -14   5    1.94    0.74
   6  14  -5    2.18    0.72
   6 -20   5    0.99    0.51
 -20  14   5    1.48    0.59
  20 -14  -8    2.75    0.88
  -6  20  -8    2.84    0.65
  -6 -14   8    3.90    0.99
   6  14  -8    4.14    0.86
   6 -20   8    3.07    0.75
 -20  14   8    4.46    1.04
 -20  15  -8    1.06    0.31
  20 -15   8    0.82    0.31
  20  -5  -8    1.09    0.44
 -20   5   8    0.53    0.35
 -20  15  -5    1.06    0.40
 -15  -5   5    1.95    0.72
  20 -15   5    0.94    0.50
  15   5  -5    2.05    0.83
  20  -5  -2    5.81    1.31
 -20  15  -2    4.40    0.90
  20 -15   2    6.31    1.15
 -15  -5   2    2.58    1.10
  15 -20   2    4.71    1.00
 -20   5   2    3.26    1.14
  15   5  -2    5.94    1.34
 -20  15   1    1.45    0.63
 -15  20   1    2.67    0.60
  20 -15  -1    2.40    0.80
  -5  20  -1    1.88    0.71
  15 -20  -1    1.65    0.65
   5 -20   1    2.82    1.08
 -20   5  -4    2.29    0.76
  20 -15  -4    2.49    0.77
  -5 -15   4    1.37    0.67
  -5  20  -4    0.90    0.46
   5  15  -4    0.22    0.44
   5 -20   4    0.72    0.59
  20 -15  -7    1.41    0.73
 -20  15   7    3.08    0.84
  -5 -15   7    2.16    0.75
  -5  20  -7    1.47    0.50
   5  15  -7    2.88    0.72
   5 -20   7    2.69    0.74
 -16  -4   9    1.99    0.68
 -20  16  -9    1.28    0.30
 -16  20  -9    0.78    0.24
  20 -16   9    0.96    0.32
  16 -20   9    0.99    0.33
  16   4  -9    2.31    0.61
 -20   4   6    3.54    0.94
 -16  20  -6    3.79    0.67
  20 -16   6    2.18    0.67
  16 -20   6    2.59    0.72
  20  -4  -6    4.45    0.95
 -20  16  -3    0.42    0.34
 -16  20  -3    0.51    0.28
 -20   4   3    2.22    0.73
  20 -16   3    0.24    0.36
 -16  -4   3    1.51    0.63
  16 -20   3    0.46    0.45
  16   4  -3    1.55    0.57
  20  -4  -3    1.48    0.64
  16 -20   0   15.38    2.00
 -20  16   0   16.25    1.91
 -16  20   0   16.65    1.73
 -16  -4   0   15.14    2.62
  16   4   0   21.10    2.59
 -20   4   0   16.58    2.56
  20  -4   0   17.94    2.39
  20 -16   0   18.54    2.20
  20  -4   3    4.79    1.26
 -16  20   3    4.05    0.88
  20 -16  -3    4.76    1.20
  16 -20  -3    3.89    1.04
  -4  20  -3    4.38    0.92
 -20   4  -3    3.89    1.13
 -20  16   3    3.85    1.02
   4 -20   3    4.53    1.22
 -20  16   6    6.06    1.19
  20 -16  -6    4.31    1.23
  -4  20  -6    4.93    0.90
   4 -20   6    2.53    1.03
   4 -20   9    1.08    0.45
  -4 -16   9    1.31    0.52
   4  16  -9    1.10    0.39
 -20  17  -7    0.36    0.16
 -17  20  -7    0.04    0.20
  17 -20   7    0.53    0.25
 -20   3   7    0.67    0.40
  20  -3  -7    1.08    0.43
  17 -20   4   11.14    1.51
 -20  17  -4    9.45    1.26
 -20   3   4    9.68    1.89
 -17  20  -4   11.53    1.25
  17   3  -4   11.58    1.79
 -17  -3   4   10.19    1.88
  20  -3  -4   11.00    1.78
  20 -17   4   10.49    1.46
 -20   3   1    0.29    0.43
  20  -3  -1    1.08    0.47
 -17  20   2   18.76    2.03
  17 -20  -2   15.73    2.09
 -17  20   5    0.76    0.36
  20 -17  -5    1.82    0.64
  -3 -17   5    0.55    0.37
  17 -20  -5    1.31    0.55
   3  17  -5    0.10    0.45
 -20  17   5    0.56    0.33
  -3  20  -8    6.31    1.05
   3  17  -8    8.09    1.15
   3 -20   8    7.28    1.32
  -3 -17   8    7.84    1.35
 -20  17   8    8.12    1.46
 -20  18  -8    0.30    0.14
  20 -18   8    0.71    0.27
 -20  18  -5    1.02    0.35
 -18  20  -5    1.09    0.38
  18 -20   5    1.63    0.56
 -18  -2   5    1.86    0.68
  18   2  -5    2.50    0.68
  20  -2  -5    2.70    0.70
 -20   2   5    2.82    0.83
 -20   2   2    3.55    0.96
 -20  18  -2    1.75    0.52
 -18  20  -2    2.59    0.54
  20 -18   2    1.13    0.54
  18 -20   2    1.53    0.63
 -18  -2   2    3.32    1.01
  18   2  -2    1.80    0.62
  20  -2  -2    2.84    0.76
 -20  18   1    1.91    0.65
 -20   2  -1    2.48    0.83
  20 -18  -1    2.60    0.84
  20  -2   1    3.20    0.86
   2 -20   4    1.21    0.57
 -20  18   4    1.12    0.47
  -2 -18   4    0.80    0.43
  -2  20  -4    1.32    0.51
   2  18  -4    0.47    0.28
   2 -20   7    1.64    0.59
  20 -18  -7    1.34    0.56
  -2 -18   7    1.61    0.57
  -2  20  -7    1.40    0.45
   2  18  -7    1.36    0.43
 -20  18   7    2.24    0.70
 -20  19  -6    1.57    0.44
 -19  20  -6    1.59    0.41
  20 -19   6    2.22    0.58
  19 -20   6    1.53    0.54
 -19  -1   6    2.32    0.75
 -20   1   6    2.52    0.81
  19   1  -6    2.64    0.69
  20  -1  -6    3.85    0.83
 -20  19  -3    0.97    0.41
 -19  20  -3    1.84    0.48
  20 -19   3    1.68    0.59
  19 -20   3    1.65    0.54
 -19  -1   3    2.50    0.86
  19   1  -3    2.61    0.75
  20  -1  -3    2.31    0.70
 -20   1   3    1.79    0.72
 -20   1   0    6.38    1.44
 -20  19   0    6.09    1.04
 -19  20   0    5.24    0.96
  20 -19   0    6.15    1.20
  20  -1   0    7.07    1.37
 -20  19   3    1.11    0.42
 -19  20   3    1.51    0.48
  20 -19  -3    1.77    0.61
  19 -20  -3    1.77    0.59
 -20  19   6    2.58    0.74
 -20  20  -4    8.63    1.05
  20 -20   4    7.72    1.25
 -20  20   2    9.45    1.44
  20 -20  -2    8.90    1.62
   0 -20   5    1.22    0.54
   0  20  -5    0.86    0.38
 -11  21  -8    0.39    0.20
 -21  10   8    0.52    0.34
  11 -21   8    1.01    0.39
  21 -10  -5    1.90    0.63
 -21  11  -5    1.01    0.38
  21 -11   5    2.01    0.63
  11  10  -5   -0.12    0.56
 -11 -10   5    1.34    0.83
 -21  10   5    1.41    0.57
  21 -10  -2    2.12    0.86
  21 -11   2    1.63    0.78
 -10  21   2    2.36    0.63
 -11  21  -2    1.75    0.56
 -21  11  -2    1.60    0.71
 -21  10   2    0.84    0.68
  10 -21  -2    1.82    0.84
  11 -21   2    1.77    0.66
  11  10  -2    2.66    0.98
 -11 -10   2    2.68    0.95
 -21  11   1    0.95    0.58
  21 -11  -1    1.30    0.73
  21 -10   1    0.35    0.56
 -11  21   1    1.16    0.50
 -21  10  -1    1.04    0.63
  11 -21  -1    0.75    0.62
  21 -10   4    1.18    0.49
 -10  21  -4    0.84    0.44
 -21  10  -4    0.71    0.36
  10  11  -4    0.91    0.62
 -10 -11   4    1.17    0.58
  10 -21   4    0.50    0.40
  21 -11  -7    1.82    0.62
 -10  21  -7    0.38    0.28
  10  11  -7    1.75    0.55
 -10 -11   7    1.63    0.65
  10 -21   7    1.38    0.47
 -21   9   9    3.37    0.89
 -12  21  -9    1.90    0.52
  12   9  -9    4.45    0.88
  12 -21   9    2.51    0.60
 -12  -9   9    5.01    1.14
  21  -9  -6    1.15    0.48
 -21  12  -6    0.94    0.35
  21 -12   6    0.70    0.35
 -12  21  -6    0.45    0.29
 -21   9   6    0.52    0.35
  12 -21   6    1.75    0.52
 -12  -9   6    0.92    0.54
 -21   9   3    3.30    1.17
  21  -9  -3    4.50    1.18
 -12  21  -3    6.61    0.94
 -21  12  -3    3.40    0.86
  21 -12   3    3.64    1.06
  12 -21   3    3.76    0.99
 -21  12   0   -0.10    0.44
  21 -12   0    0.24    0.38
  -9  21   0    0.14    0.33
 -21   9   0   -0.24    0.54
   9 -21   0    0.35    0.48
 -12  21   3    7.72    1.10
  21 -12  -3    4.94    1.24
  21  -9   3    6.34    1.39
  -9  21  -3    7.94    1.22
 -21   9  -3    4.86    1.23
  12 -21  -3    6.76    1.37
   9  12  -3    6.62    1.33
  -9 -12   3    5.29    1.72
   9 -21   3    5.42    1.28
 -21  12   3    4.93    1.22
 -21  12   6    0.65    0.38
  21 -12  -6    0.95    0.44
  -9  21  -6    0.12    0.25
   9 -21   6    0.10    0.38
  -9  21  -9    2.85    0.56
  -9 -12   9    3.36    0.92
   9  12  -9    2.66    0.66
   9 -21   9    2.99    0.70
  21 -12  -9    4.27    0.94
 -21  13  -7    0.77    0.30
  21 -13   7    0.78    0.35
  13   8  -7    1.36    0.52
 -13  -8   7    0.99    0.54
 -13  -8   4    1.93    0.77
 -21  13  -4    0.22    0.32
  21 -13   4    0.89    0.43
  13   8  -4    1.31    0.61
 -13  -8   1    0.60    0.45
  21  -8  -1    0.84    0.53
 -21   8   1    1.26    0.53
  21 -13   1    0.44    0.48
 -21  13  -1    0.68    0.51
 -13  21  -1    0.17    0.27
  -8  21   1    0.31    0.35
  13 -21   1    0.28    0.42
   8 -21  -1   -0.12    0.52
  21  -8   2    1.04    0.46
  21 -13  -2   -0.12    0.38
  -8  21  -2   -0.16    0.34
 -21  13   2    0.61    0.42
  -8 -13   2    0.80    0.52
   8  13  -2    0.13    0.41
 -21   8  -2    1.15    0.48
   8 -21   2    0.12    0.49
  21 -13  -5    1.70    0.60
  21  -8   5    0.63    0.38
 -21   8  -5    1.09    0.46
 -21  13   5    0.85    0.43
  -8 -13   5    1.36    0.64
   8  13  -5    1.16    0.47
  21 -13  -8    0.85    0.43
  -8  21  -8    0.70    0.26
  -8 -13   8    1.46    0.61
   8  13  -8    0.27    0.21
 -21  13   8    0.81    0.44
   8 -21   8    0.74    0.35
 -21   7   8    1.43    0.58
 -21  14  -8    1.54    0.46
 -14  21  -8    1.20    0.31
  14 -21   8    1.96    0.50
  14   7  -8    1.71    0.55
  21  -7  -8    1.85    0.58
 -14  -7   8    1.68    0.67
 -14  21  -5    0.79    0.34
 -21   7   5    0.92    0.46
  14 -21   5    0.43    0.24
  21  -7  -5    0.68    0.37
  21  -7  -2    0.98    0.58
 -21  14  -2    0.90    0.47
 -14  21  -2    0.73    0.34
  14 -21   2    0.95    0.52
  14   7  -2    1.72    0.61
 -21   7   2    1.47    0.64
  21  -7   1    0.99    0.49
 -21   7  -1    1.56    0.64
  21 -14  -1    0.58    0.49
 -14  21   1    0.74    0.41
  14 -21  -1    0.47    0.45
 -21  14   1   -0.10    0.48
  21  -7   4   -0.13    0.97
  21 -14  -4    2.83    0.92
  14 -21  -4    3.59    0.89
  -7  21  -4    3.74    0.76
  -7 -14   4    2.87    0.97
 -21   7  -4    3.52    0.90
   7  14  -4    4.92    1.08
   7 -21   4    2.87    0.97
 -21  14   4    3.35    0.82
  21 -14  -7    2.20    0.69
 -21  14   7    1.45    0.58
  -7 -14   7    0.92    0.50
   7  14  -7    1.29    0.48
 -15  -6   6    1.34    0.59
 -21  15  -6    0.71    0.27
 -21   6   6    1.06    0.49
 -15  21  -6    0.09    0.22
  21 -15   6    0.75    0.32
  15 -21   6    0.42    0.23
  15   6  -6    0.94    0.41
  21  -6  -6    0.54    0.32
 -15  -6   3    1.85    0.81
  15   6  -3    2.04    0.74
  21  -6   0    0.25    0.40
 -15  21   0   -0.16    0.24
  15 -21   0    0.18    0.33
 -21   6   0    0.69    0.51
  21  -6   3    1.68    0.62
 -21   6  -3    1.80    0.66
  21 -15  -3    1.46    0.56
 -15  21   3    0.91    0.47
  -6 -15   3    1.99    0.76
  15 -21  -3    0.67    0.56
  -6  21  -3    1.14    0.48
   6  15  -3    1.78    0.61
   6 -21   3    1.82    0.65
 -21  15   3    0.63    0.35
  21 -15  -6    0.74    0.40
  -6 -15   6    1.38    0.61
  -6  21  -6    0.13    0.26
 -21  15   6    0.98    0.46
   6  15  -6    1.20    0.46
   6 -21   6    0.32    0.24
  21 -15  -9    1.64    0.61
 -21  15   9    1.53    0.62
 -16  -5   7    1.57    0.63
 -16  21  -7    0.61    0.27
  16 -21   7    1.26    0.40
  16   5  -7    1.59    0.53
  21  -5  -7    1.69    0.54
 -21   5   7    1.45    0.58
 -21  16  -4   -0.06    0.29
 -16  21  -4    0.22    0.22
 -21   5   4    1.21    0.53
  21 -16   4    1.24    0.42
  16 -21   4    0.60    0.30
  21  -5  -4    1.55    0.55
  21  -5  -1    1.47    0.56
 -21  16  -1    0.42    0.39
  21 -16   1    1.66    0.56
 -21   5   1    1.10    0.68
  21  -5   2    1.06    0.50
 -16  21   2    0.76    0.41
  21 -16  -2    2.01    0.65
  -5  21  -2    0.83    0.39
  16 -21  -2    1.43    0.52
 -21  16   2    1.72    0.55
 -21   5  -2    1.01    0.51
   5 -21   2    1.57    0.63
 -21  16   5    1.90    0.61
  21 -16  -5    2.13    0.69
  -5  21  -5    1.15    0.46
   5 -21   5    1.61    0.58
 -21  16   8    0.27    0.26
  21 -16  -8    0.76    0.41
  -5 -16   8    1.72    0.61
  -5  21  -8    0.86    0.31
   5  16  -8    0.52    0.29
   5 -21   8    1.32    0.49
 -21  17  -8    0.89    0.26
  21 -17   8    1.26    0.37
 -21  17  -5    1.61    0.40
  21 -17   5    0.88    0.33
 -17  -4   5    1.16    0.55
  17   4  -5    0.94    0.44
 -21  17  -2    1.09    0.41
 -21   4   2    1.12    0.53
  21 -17   2   -0.09    0.43
  17 -21   2    0.46    0.40
 -17  -4   2    1.11    0.55
  17   4  -2    0.88    0.44
  21  -4  -2    1.85    0.61
 -21  17   1    0.71    0.35
  21 -17  -1    1.30    0.50
 -21   4  -1    2.03    0.72
  21  -4   1    2.06    0.68
 -21  17   4    2.70    0.74
  21 -17  -4    4.15    0.97
  -4 -17   4    3.13    0.92
  -4  21  -4    3.46    0.71
   4 -21   4    1.88    0.67
  21 -17  -7    1.15    0.51
  -4 -17   7    1.78    0.63
  -4  21  -7    0.65    0.28
 -21  17   7    0.65    0.39
   4  17  -7    1.31    0.45
   4 -21   7    1.38    0.53
 -21  18  -6    0.39    0.22
 -18  21  -6    0.24    0.18
  21 -18   6    0.55    0.24
 -18  -3   6    1.10    0.51
  18 -21   6    0.52    0.24
  18   3  -6    0.99    0.44
  21  -3  -6    0.69    0.35
 -21   3   3    0.57    0.37
 -21  18  -3    0.41    0.30
 -18  21  -3    0.09    0.22
  21 -18   3    0.15    0.25
  18 -21   3    0.50    0.29
 -18  -3   3    0.73    0.43
  18   3  -3    0.46    0.31
  21  -3  -3    0.76    0.38
 -21  18   0    0.84    0.32
 -18  21   0    0.06    0.28
 -21   3   0    1.49    0.62
  21 -18   0    0.77    0.36
  18 -21   0    0.15    0.32
  21  -3   0    0.73    0.40
 -18  21   3    0.73    0.32
  21 -18  -3    1.47    0.56
  18 -21  -3    1.00    0.44
 -21  18   3    0.42    0.28
 -21  18   6    0.58    0.35
  21 -18  -6    1.06    0.49
  -3  21  -6    0.79    0.32
   3 -21   6    0.88    0.44
 -21  19  -4    0.05    0.25
 -19  21  -4    0.46    0.25
  21 -19   4    0.91    0.32
  19 -21   4    0.47    0.24
  21  -2  -4    0.32    0.24
 -21   2   4    1.14    0.53
 -21   2   1    2.87    0.88
  21  -2  -1    2.79    0.77
 -19  21   2    1.38    0.47
  19 -21  -2    2.24    0.64
 -21  19   5    3.15    0.82
  21 -19  -5    4.58    1.05
 -20  -1   5    2.36    0.77
  20   1  -5    2.17    0.64
 -21  20  -2    1.53    0.40
 -20  21  -2    0.22    0.38
  21 -20   2    2.20    0.54
  20 -21   2    1.80    0.50
 -20  -1   2    2.41    0.85
  21  -1  -2    3.35    0.81
 -21   1   2    2.74    0.86
 -21  20   1    1.52    0.48
 -20  21   1    1.94    0.54
  21 -20  -1    2.17    0.62
  20 -21  -1    2.58    0.67
 -20  21   4    1.29    0.46
  21 -20  -4    1.66    0.61
  20 -21  -4    1.78    0.64
 -21  20   4    1.53    0.55
 -21   0   3    1.12    0.56
  21   0  -3    1.10    0.46
 -21  21   0    0.94    0.34
 -21  21   3    0.76    0.34
  21 -21  -3    1.52    0.56
 -11  22   0    1.94    0.60
  11 -22   0    1.56    0.61
  22 -11  -3    2.24    0.94
 -22  11   3    2.78    0.92
 -11 -11   3    3.22    1.23
  22 -11  -6    0.59    0.35
  11  11  -6    0.82    0.39
 -11 -11   6    0.92    0.50
 -22  11   6    0.91    0.46
 -12  22  -7    0.82    0.28
 -22  10   7    1.03    0.48
  12  10  -7    1.03    0.43
  12 -22   7    0.73    0.33
 -12 -10   7    1.46    0.65
  22 -10  -7    1.56    0.55
 -12  22  -4    5.56    0.88
  22 -12   4    5.03    1.07
  12  10  -4    7.78    1.45
  12 -22   4    3.20    0.91
  22 -10  -4    6.63    1.24
 -22  12  -4    4.30    1.01
 -12 -10   4    8.38    1.64
 -22  10   4    4.58    1.23
  22 -10  -1    1.28    0.51
 -12  22  -1    1.09    0.46
  10 -22  -1    1.93    0.71
  12 -22   1    0.61    0.49
 -22  10  -2    5.28    1.27
  22 -12  -2    6.93    1.48
 -10  22  -2    9.94    1.26
  22 -10   2    5.69    1.39
  12 -22  -2    7.94    1.50
  10 -22   2    3.86    1.21
 -22  12   2    6.83    1.41
 -22  12   5    0.75    0.41
 -10  22  -5    0.07    0.30
  10  12  -5    1.28    0.49
 -10 -12   5    0.51    0.39
  10 -22   5    0.72    0.36
 -22  12   8    1.67    0.62
 -10 -12   8    2.67    0.84
  10  12  -8    2.06    0.60
  13   9  -8    2.81    0.72
 -13  -9   8    2.76    0.85
 -22  13  -5    1.10    0.38
  22 -13   5    1.01    0.43
  13   9  -5    0.48    0.32
 -13  -9   5    0.77    0.51
  22 -13   2    5.34    1.17
 -22  13  -2    5.16    1.22
  22  -9   1    1.19    0.50
  22 -13  -1    0.46    0.31
 -13  22   1    0.31    0.27
  -9  22  -1    0.49    0.37
 -22  13   1    0.60    0.32
  13 -22  -1    1.00    0.42
 -22   9  -1    0.94    0.44
   9 -22   1    0.36    0.28
 -22   9  -4    2.49    0.73
  22 -13  -4    3.62    0.95
  22  -9   4    5.07    1.07
  -9  22  -4    4.23    0.88
 -22  13   4    3.81    0.92
  -9 -13   4    4.94    1.28
   9  13  -4    4.99    1.04
   9 -22   4    2.08    0.92
  22 -13  -7    0.83    0.42
  -9  22  -7    0.93    0.30
  -9 -13   7    0.46    0.36
   9  13  -7    1.15    0.44
   9 -22   7    0.77    0.36
 -22  14  -6    0.13    0.13
  22 -14   6    1.05    0.40
 -14  22  -6    0.66    0.24
 -22   8   6    0.64    0.38
  14 -22   6    0.87    0.33
  14   8  -6    1.02    0.45
 -14  -8   6    1.84    0.73
  22  -8  -6    0.54    0.32
 -14  -8   3    5.41    1.56
 -22  14  -3    2.99    0.84
  22 -14   3    4.97    1.06
 -14  22  -3    4.90    0.83
  14 -22   3    3.42    0.92
  14   8  -3    7.09    1.42
 -22   8   3    5.38    1.14
  22 -14   0    3.33    0.86
 -14  22   0    3.70    0.72
  14 -22   0    2.35    0.76
 -22  14   0    2.07    0.80
 -22  14   3    2.74    0.73
  22  -8   3    2.94    0.81
  22 -14  -3    2.52    0.76
 -22   8  -3    1.87    0.75
  22 -14  -6    1.08    0.48
 -22  14   6    0.63    0.38
  -8  22  -6    1.37    0.39
  -8 -14   6    1.53    0.68
   8  14  -6    0.66    0.36
   8 -22   6    0.65    0.35
 -15  -7   7    2.15    0.76
 -22  15  -7    1.54    0.41
  22 -15   7    1.22    0.42
  15   7  -7    1.77    0.57
 -15  -7   4    3.34    0.99
 -22  15  -4    0.87    0.51
  22 -15   4    3.41    0.75
 -22   7   4    2.88    0.82
  15 -22   4    1.76    0.57
  15   7  -4    3.24    0.82
  22  -7  -4    4.33    0.94
  22  -7  -1    1.47    0.56
 -22  15  -1    0.08    0.38
  22 -15   1    1.16    0.50
 -15  22  -1    0.90    0.37
  15 -22   1    0.87    0.50
 -22   7   1    1.21    0.53
  22  -7   2    4.24    1.06
 -22   7  -2    4.68    1.08
  22 -15  -2    4.47    1.07
 -15  22   2    4.09    0.82
  -7  22  -2    5.49    1.08
  15 -22  -2    5.63    1.08
   7 -22   2    6.03    1.23
 -22  15   2    4.66    0.96
  -7  22  -5    2.14    0.52
  -7 -15   5    2.39    0.85
   7  15  -5    2.15    0.65
   7 -22   5    1.83    0.62
 -22  16  -5    0.72    0.27
 -16  -6   5    1.40    0.61
 -22   6   5    0.52    0.34
 -16  22  -5   -0.04    0.18
  22 -16   5    0.82    0.34
  16 -22   5    0.72    0.30
  16   6  -5    1.09    0.46
  22  -6  -5    0.54    0.32
 -16  22  -2    5.60    0.85
 -22  16  -2    3.25    0.88
 -22   6   2    6.40    1.25
  16 -22   2    4.01    0.98
  22 -16   2    5.55    1.04
  22 -16  -1    1.37    0.52
 -16  22   1    0.06    0.27
  16 -22  -1    0.44    0.31
 -22  16   1    0.90    0.39
  -6  22  -4    2.70    0.61
   6 -22   4    3.25    0.86
  22 -16  -7    1.23    0.51
 -22  16   7    0.78    0.42
  -6 -16   7    0.65    0.39
   6  16  -7    0.57    0.31
 -22  17  -6    1.02    0.32
 -17  -5   6    1.62    0.65
  22 -17   6    1.65    0.46
  17   5  -6    2.42    0.67
 -22  17  -3    1.25    0.38
 -17  -5   3    1.47    0.65
  17   5  -3    1.00    0.47
  22  -5  -3    2.00    0.63
 -17  22   0    5.86    0.89
  17 -22   0    4.68    1.02
 -22   5   0    5.30    1.18
  22  -5   0    6.04    1.19
 -17  22   3    3.12    0.81
  22 -17  -3    4.59    1.01
 -22  17   3    2.90    0.80
  17 -22  -3    4.81    0.97
   5 -22   3    2.98    0.87
  22 -17  -6    1.64    0.59
  -5 -17   6    2.52    0.81
  -5  22  -6    1.85    0.47
   5  17  -6    1.51    0.51
 -22  17   6    1.22    0.52
   5 -22   6    1.53    0.55
 -22   4   4    1.49    0.60
 -18  22  -4    1.16    0.30
  22 -18   4    1.03    0.38
  18 -22   4    0.91    0.34
  22  -4  -4    1.57    0.54
 -22  18  -1    2.07    0.66
 -22   4   1    3.41    0.93
  22 -18   1    2.76    0.69
  22  -4  -1    2.69    0.75
 -18  22   2    1.30    0.41
  22 -18  -2    1.63    0.58
  18 -22  -2    1.21    0.45
 -22  18   2    1.40    0.50
  22 -18  -5    1.75    0.62
 -22  18   5    1.31    0.51
  -4  22  -5    1.72    0.48
   4 -22   5    0.83    0.43
 -19  -3   5    0.99    0.50
  19   3  -5    1.69    0.58
 -22   3   2    4.59    1.10
 -22  19  -2    3.34    0.81
  22 -19   2    6.26    1.03
 -22  19   1    0.92    0.35
 -19  22   1    0.67    0.28
  22 -19  -1    0.43    0.29
  19 -22  -1    1.04    0.40
  22 -19  -4    4.11    0.97
 -22  19   4    2.79    0.75
  22  -2  -3    1.59    0.55
 -22   2   3    0.57    0.39
 -20  22   0    3.70    0.69
  20 -22   0    5.44    0.95
 -20  22   3    0.83    0.35
  20 -22  -3    1.26    0.51
  23 -11  -5    1.04    0.46
  23 -12   5    1.01    0.45
 -12  23  -5    0.63    0.24
 -23  12  -5    0.68    0.34
  12  11  -5    0.78    0.39
  12 -23   5    1.07    0.41
 -12 -11   5    1.62    0.68
 -23  11   5    0.88    0.44
  23 -12   2    1.13    0.48
 -23  12  -2    1.95    0.58
  12 -23   2    0.80    0.36
  23 -12  -1    1.63    0.56
  23 -11   1    1.37    0.53
 -11  23  -1    1.28    0.47
  11 -23   1    0.68    0.35
 -23  12   1    1.08    0.46
 -23  11  -1    1.06    0.45
  23 -12  -4    2.52    0.74
 -23  12   4    4.05    0.96
  23 -11   4    4.14    0.94
 -23  11  -4    4.06    0.87
  11  12  -7    1.05    0.42
  13  10  -6   10.04    1.49
 -13 -10   6    8.19    1.67
  23 -10  -3    0.23    0.22
  23 -13   3    0.78    0.39
 -13  23  -3    0.28    0.17
  13 -23   3    0.57    0.29
 -23  13  -3    0.67    0.34
 -23  10   3    0.75    0.41
  23 -10   0    8.80    1.70
 -13  23   0   11.56    1.38
 -23  13   0    8.35    1.57
 -23  10   0    5.03    1.48
  13 -23   0    9.72    1.63
  23 -13  -3    1.37    0.52
  23 -10   3    0.58    0.35
 -10  23  -3    0.76    0.30
 -23  13   3    1.28    0.51
  10 -23   3    1.00    0.44
 -23  10  -3    0.43    0.29
 -10  23  -6    7.79    1.21
  10 -23   6    8.46    1.35
  10  13  -6    9.79    1.48
 -10 -13   6    8.87    1.67
  23  -9  -4    3.31    0.83
 -14  23  -4    2.71    0.60
  14 -23   4    2.87    0.66
 -23   9   4    4.19    0.98
  23  -9  -1    2.10    0.66
 -14  23  -1    1.16    0.38
  14 -23   1    1.29    0.46
 -23   9   1    1.13    0.50
 -23  14   2    4.90    0.97
  23  -9   2    4.33    0.99
  23 -14  -2    3.61    0.89
  -9  23  -2    4.40    0.88
 -23   9  -2    3.72    0.92
   9 -23   2    3.64    0.91
  23 -14  -5    0.58    0.35
 -23  14   5    0.98    0.46
  -9  23  -5    0.73    0.29
   9 -23   5    0.73    0.37
 -23  15  -5    0.47    0.24
  23 -15   5    0.83    0.37
  15   8  -5    0.59    0.35
  23 -15   2    2.52    0.69
 -23  15  -2    1.38    0.48
 -23   8  -1    0.65    0.39
  23  -8   1    0.96    0.45
  23 -15  -1    0.68    0.37
 -15  23   1    0.77    0.33
  15 -23  -1    0.57    0.36
 -23  15   1    0.78    0.37
  23 -15  -4    1.76    0.59
 -23  15   4    1.53    0.55
 -23  16  -3    0.63    0.28
  23 -16   3    0.49    0.29
 -16  23  -3    0.75    0.25
 -23   7   3    1.82    0.64
  16 -23   3    0.70    0.31
  23  -7  -3    1.02    0.45
 -16  23   0    5.54    0.94
  16 -23   0    5.55    1.20
 -23  16   0    5.74    1.11
  23  -7   0    7.45    1.35
 -23   7   0    7.41    1.37
  23 -16   0    7.11    1.23
  23 -16  -3    1.05    0.47
 -23  16   3    0.81    0.38
  -7  23  -3    1.19    0.41
   7 -23   3    1.28    0.54
  23 -17   4    5.06    0.92
 -23  17  -1    0.51    0.26
 -17  23  -1    0.81    0.27
  23 -17   1    0.41    0.27
 -23   6   1    0.95    0.47
  17 -23   1    0.65    0.31
  23 -17  -2    5.66    1.13
 -23  17   2    5.95    1.08
  -6  23  -5    0.76    0.31
   6 -23   5    1.66    0.59
 -18  23  -2    1.59    0.37
 -23   5   2    1.35    0.57
  18 -23   2    1.73    0.49
  23  -5  -2    1.45    0.54
 -18  23   1    0.67    0.28
  23 -18  -1    1.11    0.47
 -23  18   1    0.66    0.33
  18 -23  -1    0.94    0.38
  24 -12   0    2.12    0.64
 -24  12   0    2.65    0.73
 -12  24  -3    3.17    0.60
  24 -12   3    3.82    0.88
 -24  12  -3    2.05    0.62
  12 -24   3    2.27    0.63
 -24  13  -4    0.94    0.40
  24 -13   4    1.42    0.53
  24 -11  -1    0.56    0.34
  24 -13   1    1.00    0.44
 -24  13  -1    1.19    0.45
 -24  11   1    0.95    0.45
  24 -13  -2    2.10    0.65
  24 -11   2    1.62    0.56
 -24  13   2    2.25    0.67
 -24  11  -2    2.03    0.63
 -24  14  -2    2.71    0.70
  24 -10  -2    4.31    0.95
 -14  24  -2    3.72    0.68
  24 -14   2    4.36    0.97
  14 -24   2    4.32    0.87
 -24  10   2    3.68    0.92
  24 -10   1    1.15    0.48
  24 -14  -1    0.11    0.15
 -24  14   1    0.92    0.41
 -10  24  -4    3.07    0.60
  10 -24   4    2.72    0.73
  24  -9   0    1.27    0.51
  24 -15   0    1.09    0.46
 -15  24   0    1.25    0.36
  15 -24   0    2.07    0.59
 -24  15   0    0.75    0.36
 -24   9   0    1.51    0.58
  24  -8  -1    0.58    0.34
 -16  24  -1    0.16    0.12
  16 -24   1    0.69    0.32
 -24   8   1    0.64    0.38
 -17  24   1    0.96    0.31
  17 -24  -1    1.55    0.49
   0   0   0    0.00    0.00









TITL Crystal_4_(01)_290K in R-3c
REM R-3c (#167 in standard setting)
CELL 0.69804  16.324929  16.324929  12.416329  90.0000  90.0000 120.0000
ZERR   12.00   0.000477   0.000477   0.000370   0.0000   0.0000   0.0000
LATT  3
SYMM -y, x-y, z
SYMM -x+y,-x, z
SYMM  y, x,-z+1/2
SYMM  x-y,-y,-z+1/2
SYMM -x,-x+y,-z+1/2
SFAC C H N O
UNIT 132.00 120.00 12.00 12.00
TREF
HKLF 4
END
_computing_structure_solution     'SHELXT 2014/5 (Sheldrick, 2014)'
_computing_structure_solution     'SHELXT 2014/5 (Sheldrick, 2014)'
_computing_structure_solution     'SHELXT 2014/5 (Sheldrick, 2014)'
_computing_structure_solution     'SHELXT 2014/5 (Sheldrick, 2014)'
_computing_structure_solution     'SHELXT 2014/5 (Sheldrick, 2014)'
_computing_structure_solution     'SHELXT 2014/5 (Sheldrick, 2014)'
_computing_structure_solution     'SHELXT 2014/5 (Sheldrick, 2014)'
_computing_structure_solution     'SHELXT 2014/5 (Sheldrick, 2014)'
;
_shelx_hkl_checksum               89768
_shelx_SHELXL_version_number      '2014/7'
_olex2_submission_special_instructions 'No special instructions were received'
